@<TRIPOS>MOLECULE
Cpptraj generated mol2 file.
  235   246     2     0     0
SMALL
USER_CHARGES


@<TRIPOS>ATOM
      1 CAA        80.0583   59.0681   33.3990 a2         1 CLA     -0.055900
      2 CAB        79.2327   62.2995   42.5690 c8         1 CLA     -0.148500
      3 CAC        72.7002   57.7160   41.6670 a2         1 CLA     -0.012600
      4 CAD        76.0388   55.9194   34.3829 ck         1 CLA      0.398800
      5 NA         78.8471   59.1217   36.8576 ns         1 CLA     -0.225500
      6 CBA        81.2543   59.2436   32.5225 a2         1 CLA     -0.135000
      7 CBB        80.4306   62.4069   43.2498 c0         1 CLA     -0.395200
      8 CBC        72.6797   56.1395   41.6286 a3         1 CLA     -0.037700
      9 CBD        77.4812   56.7576   34.0071 a1         1 CLA     -0.053900
     10 NB         78.3914   60.5451   39.4458 nm         1 CLA     -0.295700
     11 OBD        75.4871   55.1006   33.6687 o2         1 CLA     -0.494600
     12 CGA        81.9422   57.8899   32.1144 c4         1 CLA      0.827000
     13 CGD        78.5830   55.8330   33.5791 c4         1 CLA      0.655300
     14 ND         76.1523   57.9618   37.3082 nm         1 CLA     -0.291600
     15 CED        79.6332   53.8027   34.1403 a3         1 CLA      0.005400
     16 CHA        77.7260   57.6329   35.2930 cs         1 CLA     -0.123800
     17 CHB        80.2944   60.7981   37.9380 aa         1 CLA     -0.291900
     18 CHC        77.0088   60.4562   41.4581 aa         1 CLA     -0.090400
     19 CHD        74.1788   57.4729   38.8201 aa         1 CLA     -0.052000
     20 CMA        82.3780   59.0272   36.1481 a3         1 CLA     -0.230700
     21 CMB        81.5333   62.3574   40.1648 a3         1 CLA     -0.180800
     22 CMC        74.6604   59.7908   43.3749 a3         1 CLA     -0.134000
     23 CMD        73.3638   55.5208   36.4133 a3         1 CLA     -0.141100
     24 C1         83.1113   56.0425   33.0554 a2         1 CLA      0.023000
     25 C1A        78.8414   58.4614   35.7101 ac         1 CLA     -0.015100
     26 C1B        79.5967   61.0614   39.1680 cr         1 CLA      0.054700
     27 C1C        75.8397   59.6693   41.0725 cn         1 CLA     -0.005600
     28 C1D        74.8561   57.3576   37.5434 ap         1 CLA     -0.047300
     29 O1A        81.8431   57.3046   31.0010 o2         1 CLA     -0.610800
     30 O1D        79.3863   56.0766   32.6549 o2         1 CLA     -0.558200
     31 C2         83.6799   55.6265   34.4064 c8         1 CLA     -0.325100
     32 C2A        80.2605   58.6125   34.8666 a1         1 CLA      0.098600
     33 C2B        80.1932   61.7192   40.2696 cb         1 CLA      0.088500
     34 C2C        74.8462   59.2417   41.9739 cb         1 CLA      0.053700
     35 C2D        74.6283   56.3891   36.5501 cb         1 CLA      0.058900
     36 O2A        82.7630   57.4582   33.1154 o1         1 CLA     -0.437200
     37 O2D        78.4679   54.6767   34.3420 o1         1 CLA     -0.357600
     38 C3         84.7567   54.8317   34.6624 c5         1 CLA      0.031200
     39 C3A        80.9943   59.6201   35.7670 a1         1 CLA      0.166800
     40 C3B        79.1743   61.6824   41.2452 cb         1 CLA      0.035000
     41 C3C        74.0278   58.3718   41.2321 cb         1 CLA     -0.089900
     42 C3D        75.6889   56.5129   35.6225 cb         1 CLA     -0.035900
     43 C4         84.8260   53.3439   35.0116 a3         1 CLA     -0.053300
     44 C4A        80.0203   59.9137   36.9724 ac         1 CLA      0.001800
     45 C4B        78.1227   60.8519   40.7037 cn         1 CLA     -0.020900
     46 C4C        74.5869   58.2733   39.8996 cr         1 CLA     -0.044400
     47 C4D        76.6103   57.4605   36.1321 c6         1 CLA     -0.046000
     48 C5         86.0701   55.5646   34.4512 a2         1 CLA     -0.070400
     49 C6         86.6882   56.4947   35.5197 a2         1 CLA      0.043900
     50 C7         86.7757   55.8670   36.9483 a2         1 CLA     -0.150000
     51 C8         87.1894   56.8679   38.0863 a1         1 CLA      0.064200
     52 C9         88.6710   57.2683   37.8719 a3         1 CLA     -0.259300
     53 C10        86.9036   56.0522   39.4446 a2         1 CLA     -0.071900
     54 C11        87.2365   56.7947   40.7262 a2         1 CLA      0.014500
     55 C12        86.5912   56.0791   41.9894 a2         1 CLA     -0.112100
     56 C13        86.9074   56.7458   43.3744 a1         1 CLA      0.089200
     57 C14        88.4308   56.6888   43.7529 a3         1 CLA     -0.239100
     58 C15        86.0552   55.9898   44.4757 a2         1 CLA     -0.102200
     59 C16        84.5152   56.0989   44.4184 a2         1 CLA      0.023900
     60 C17        84.1730   57.5809   44.7682 a2         1 CLA     -0.105700
     61 C18        82.6948   57.8556   44.8930 a1         1 CLA      0.206800
     62 C19        82.0339   57.4523   46.1976 a3         1 CLA     -0.280100
     63 C20        82.3939   59.3453   44.6799 a3         1 CLA     -0.280100
     64 NC         75.7441   59.0463   39.8367 nx         1 CLA     -0.309200
     65 MG         77.2114   59.2482   38.2425 mg         1 CLA      0.895000
     66 HMD3       72.4763   56.0922   36.1126 dc         1 CLA      0.064300
     67 HMD2       73.4222   54.7824   35.6976 dc         1 CLA      0.064300
     68 HMD1       73.0160   55.0238   37.3386 dc         1 CLA      0.064300
     69 HMC3       73.7908   60.4431   43.3618 dc         1 CLA      0.052100
     70 HMC2       74.2847   58.8396   43.9459 dc         1 CLA      0.052100
     71 HMC1       75.5800   60.1410   43.8359 dc         1 CLA      0.052100
     72 HMB3       81.4801   63.1122   39.4148 dc         1 CLA      0.063600
     73 HMB2       81.9257   62.7976   41.0279 dc         1 CLA      0.063600
     74 HMB1       82.2755   61.6365   39.8661 dc         1 CLA      0.063600
     75 HMA3       82.2583   57.9796   36.4343 dc         1 CLA      0.058300
     76 HMA2       83.0134   59.1008   35.2621 dc         1 CLA      0.058300
     77 HMA1       82.7711   59.6014   36.9638 dc         1 CLA      0.058300
     78 HED3       79.6373   52.8564   34.6756 dc         1 CLA      0.079300
     79 HED2       79.7978   53.4939   33.0835 dc         1 CLA      0.079300
     80 HED1       80.4242   54.4186   34.5140 dc         1 CLA      0.079300
     81 HBC3       72.5582   55.7791   40.5828 dc         1 CLA      0.016300
     82 HBC2       73.5615   55.7650   42.0787 dc         1 CLA      0.016300
     83 HBC1       71.8116   55.7320   42.1592 dc         1 CLA      0.016300
     84 HBB2       80.5514   62.8990   44.2516 da         1 CLA      0.183000
     85 HBB1       81.4287   61.9981   42.9215 da         1 CLA      0.183000
     86 HBA2       80.8619   59.6850   31.5461 dc         1 CLA      0.029400
     87 HBA1       81.9889   59.9860   32.8047 dc         1 CLA      0.029400
     88 HAC2       72.5266   57.9931   42.6805 dc         1 CLA      0.029300
     89 HAC1       71.8535   58.1120   41.0687 dc         1 CLA      0.029300
     90 HAA2       79.3358   58.3852   32.9139 dc         1 CLA      0.028700
     91 HAA1       79.5901   60.0797   33.5240 dc         1 CLA      0.028700
     92 H203       82.8577   59.9964   45.4186 dc         1 CLA      0.065600
     93 H202       82.6633   59.6431   43.7126 dc         1 CLA      0.065600
     94 H201       81.3743   59.4933   44.8646 dc         1 CLA      0.065600
     95 H193       81.0425   57.8715   46.3740 dc         1 CLA      0.065600
     96 H192       82.1985   56.3359   46.3387 dc         1 CLA      0.065600
     97 H191       82.6704   57.8285   46.9322 dc         1 CLA      0.065600
     98 H172       84.6713   57.9804   45.6487 dc         1 CLA      0.027600
     99 H171       84.5537   58.2078   43.9876 dc         1 CLA      0.027600
    100 H162       84.0795   55.7926   43.4237 dc         1 CLA      0.002900
    101 H161       84.1991   55.3741   45.1695 dc         1 CLA      0.002900
    102 H152       86.3213   54.9231   44.4853 dc         1 CLA      0.029100
    103 H151       86.2783   56.4239   45.4293 dc         1 CLA      0.029100
    104 H143       88.7261   55.6737   44.0062 dc         1 CLA      0.063600
    105 H142       89.0415   57.0480   42.9291 dc         1 CLA      0.063600
    106 H141       88.4698   57.3984   44.5750 dc         1 CLA      0.063600
    107 H122       85.5592   56.2683   41.7800 dc         1 CLA      0.032500
    108 H121       87.0119   55.0391   42.0535 dc         1 CLA      0.032500
    109 H112       88.2798   56.7719   40.8725 dc         1 CLA      0.006600
    110 H111       86.8392   57.7939   40.7715 dc         1 CLA      0.006600
    111 H102       85.8850   55.8691   39.3508 dc         1 CLA      0.024100
    112 H101       87.4348   55.1302   39.4251 dc         1 CLA      0.024100
    113 HHD        73.1862   57.0001   39.0384 da         1 CLA      0.174300
    114 HHC        76.8440   60.8773   42.4543 da         1 CLA      0.136800
    115 HHB        81.2272   61.3172   37.7414 da         1 CLA      0.138300
    116 HBD        77.2644   57.4398   33.1705 dc         1 CLA      0.107700
    117 HAB        78.3596   62.8202   42.9018 da         1 CLA      0.155200
    118 H93        88.7813   57.9088   37.0319 dc         1 CLA      0.069500
    119 H92        88.9656   57.8254   38.7620 dc         1 CLA      0.069500
    120 H91        89.2866   56.3531   37.6560 dc         1 CLA      0.069500
    121 H8         86.4687   57.6935   38.0474 dc         1 CLA      0.029300
    122 H72        85.7696   55.4176   37.0229 dc         1 CLA      0.044400
    123 H71        87.4431   54.9988   37.0315 dc         1 CLA      0.044400
    124 H62        87.7671   56.7819   35.3020 dc         1 CLA      0.015600
    125 H61        86.0833   57.4413   35.6644 dc         1 CLA      0.015600
    126 H52        86.7895   54.8388   34.4690 dc         1 CLA      0.033200
    127 H51        86.0819   56.2078   33.5253 dc         1 CLA      0.033200
    128 H43        83.8237   53.0081   34.9298 dc         1 CLA      0.037000
    129 H42        85.5399   52.8588   34.3256 dc         1 CLA      0.037000
    130 H41        85.1791   53.2505   36.0201 dc         1 CLA      0.037000
    131 H3A        81.3275   60.5315   35.3693 dc         1 CLA      0.041100
    132 H2A        80.7461   57.6169   34.8314 dc         1 CLA      0.083100
    133 H2         83.4333   56.1990   35.2659 da         1 CLA      0.180900
    134 H18        82.2266   57.3341   44.0674 dc         1 CLA     -0.003900
    135 H13        86.7387   57.8156   43.3330 dc         1 CLA      0.019700
    136 H12        82.2856   55.3413   32.8457 dc         1 CLA      0.120400
    137 H11        83.9050   55.8528   32.3335 dc         1 CLA      0.120400
    138 C1         69.1078   62.1343   49.2200 Z1         2 LUT      0.509236
    139 C2         67.7057   61.7880   49.7368 Z2         2 LUT     -0.434695
    140 C3         66.7564   62.9753   49.9945 Z3         2 LUT      0.437453
    141 O3         66.6508   63.0940   51.4465 S1         2 LUT     -0.547129
    142 C4         67.1912   64.2458   49.3510 Z4         2 LUT     -0.468603
    143 C5         68.0138   64.1882   48.0611 Z5         2 LUT      0.279246
    144 C6         68.9584   63.1718   48.0462 Z6         2 LUT     -0.305473
    145 C7         69.4318   62.6887   46.7710 Z7         2 LUT      0.069402
    146 C8         70.7150   62.8360   46.3563 Z8         2 LUT     -0.191631
    147 C9         71.2177   62.5646   45.0496 Z9         2 LUT      0.196698
    148 C10        72.2809   63.3298   44.6376 Y1         2 LUT     -0.208611
    149 C11        73.0246   63.3852   43.4209 Y2         2 LUT      0.030784
    150 C12        74.2635   63.8309   43.0275 Y3         2 LUT     -0.220316
    151 C13        74.9725   63.7293   41.7008 Y4         2 LUT      0.215937
    152 C14        76.1982   64.3647   41.5932 Y5         2 LUT     -0.185793
    153 C15        77.1662   64.5283   40.5571 Y6         2 LUT     -0.057835
    154 C16        69.6883   60.7196   48.8036 Y7         2 LUT     -0.405615
    155 C17        69.8579   62.7577   50.5085 Y7         2 LUT     -0.405615
    156 C18        67.4436   64.8343   46.8905 Y9         2 LUT     -0.369639
    157 C19        70.5441   61.5339   44.1891 W1         2 LUT     -0.333362
    158 C20        74.2150   63.1747   40.5882 W2         2 LUT     -0.323439
    159 C21        88.5676   65.8506   34.4210 Z1         2 LUT      0.406104
    160 C22        89.2181   65.1906   33.1649 Z2         2 LUT     -0.404965
    161 C23        89.5532   66.0756   31.9966 Z3         2 LUT      0.391255
    162 O23        89.8404   65.0382   30.9455 S1         2 LUT     -0.528210
    163 C24        88.2822   66.9367   31.6671 W6         2 LUT     -0.258361
    164 C25        87.2670   67.1809   32.5498 Z5         2 LUT      0.133546
    165 C26        87.2338   66.5103   33.9027 W8         2 LUT     -0.147008
    166 C27        86.5263   67.2489   35.0420 Z7         2 LUT      0.023843
    167 C28        85.4906   66.7462   35.6640 Z8         2 LUT     -0.216987
    168 C29        84.6546   67.1795   36.7588 Z9         2 LUT      0.206524
    169 C30        83.5364   66.5001   37.0735 Y1         2 LUT     -0.215556
    170 C31        82.6840   66.5731   38.2506 Y2         2 LUT      0.025142
    171 C32        81.4936   65.9247   38.4755 Y3         2 LUT     -0.212209
    172 C33        80.5920   66.0486   39.6448 Y4         2 LUT      0.240937
    173 C34        79.3817   65.3382   39.6057 Y5         2 LUT     -0.218862
    174 C35        78.3827   65.2176   40.6709 Y6         2 LUT     -0.023547
    175 C36        89.5841   66.7335   35.1045 Y7         2 LUT     -0.393485
    176 C37        88.2210   64.6491   35.4020 Y7         2 LUT     -0.393485
    177 C38        86.0542   68.0346   32.1093 Y9         2 LUT     -0.387526
    178 C39        85.2098   68.3601   37.5937 W1         2 LUT     -0.322618
    179 C40        81.0787   66.9465   40.7892 W2         2 LUT     -0.358472
    180 H403       80.3735   66.9860   41.5923 R7         2 LUT      0.097720
    181 H402       82.0818   66.7081   41.2383 R7         2 LUT      0.097720
    182 H401       81.2593   67.9703   40.4290 R7         2 LUT      0.097720
    183 H393       85.8230   67.9906   38.4047 R4         2 LUT      0.082505
    184 H392       85.7825   69.1012   37.0813 R4         2 LUT      0.082505
    185 H391       84.4161   68.9278   38.0307 R4         2 LUT      0.082505
    186 H383       85.1695   67.4048   32.2890 R1         2 LUT      0.104030
    187 H382       85.8774   69.0670   32.6425 R1         2 LUT      0.104030
    188 H381       86.1453   68.3657   31.0739 R1         2 LUT      0.104030
    189 H373       89.1038   63.9757   35.4434 T4         2 LUT      0.089537
    190 H372       87.8943   65.0978   36.3680 T4         2 LUT      0.089537
    191 H371       87.3145   64.1552   35.0112 T4         2 LUT      0.089537
    192 H363       89.8589   67.6215   34.5130 T4         2 LUT      0.089537
    193 H362       89.1614   67.1480   36.0421 T4         2 LUT      0.089537
    194 H361       90.4781   66.1478   35.3312 T4         2 LUT      0.089537
    195 H222       90.2189   64.7873   33.4106 U2         2 LUT      0.127376
    196 H221       88.5471   64.3934   32.8258 U2         2 LUT      0.127376
    197 H203       73.1309   63.5171   40.5442 R7         2 LUT      0.087068
    198 H202       74.6910   63.5057   39.6505 R7         2 LUT      0.087068
    199 H201       74.1761   62.0554   40.7155 R7         2 LUT      0.087068
    200 H193       69.9894   60.8693   44.7717 R4         2 LUT      0.089716
    201 H192       69.7748   61.9855   43.5255 R4         2 LUT      0.089716
    202 H191       71.1641   60.9724   43.4845 R4         2 LUT      0.089716
    203 H183       68.1649   64.9248   46.1902 R1         2 LUT      0.094572
    204 H182       66.6871   64.1547   46.5020 R1         2 LUT      0.094572
    205 H181       66.9301   65.7886   47.0214 R1         2 LUT      0.094572
    206 H173       70.9249   63.0304   50.2754 T4         2 LUT      0.093752
    207 H172       69.4236   63.6694   50.8611 T4         2 LUT      0.093752
    208 H171       69.9387   62.0435   51.3644 T4         2 LUT      0.093752
    209 H163       70.6031   60.8174   48.2498 T4         2 LUT      0.093752
    210 H162       69.8535   60.1872   49.7382 T4         2 LUT      0.093752
    211 H161       69.0400   60.1702   48.1031 T4         2 LUT      0.093752
    212 HO3        66.0192   62.4390   51.7969 Q1         2 LUT      0.300121
    213 H8         71.3052   63.4834   46.9999 U7         2 LUT      0.080784
    214 H7         68.6529   62.3769   46.0746 U6         2 LUT      0.042190
    215 H42        66.3639   64.8185   49.0407 U5         2 LUT      0.145166
    216 H41        67.6703   64.9327   50.0925 U5         2 LUT      0.145166
    217 H35        78.6782   65.6440   41.6134 T3         2 LUT      0.077919
    218 H34        79.1181   64.8321   38.7124 T2         2 LUT      0.073626
    219 H32        81.2376   65.2020   37.7100 T1         2 LUT      0.092510
    220 H31        83.0911   67.1609   38.9848 U9         2 LUT      0.070048
    221 H30        83.4276   65.6444   36.3756 U8         2 LUT      0.085442
    222 H3         65.7486   62.7360   49.6800 U3         2 LUT     -0.031596
    223 H28        85.0746   65.8368   35.1674 U7         2 LUT      0.084728
    224 H27        87.0662   68.0548   35.4597 U6         2 LUT      0.087291
    225 H26        86.5416   65.7091   33.4994 Q6         2 LUT      0.075325
    226 H24        88.4423   67.5267   30.8032 Q5         2 LUT      0.094482
    227 H23        90.4544   66.6573   32.2959 U3         2 LUT     -0.024869
    228 H22        67.2360   61.2531   48.8924 U2         2 LUT      0.127376
    229 H21        67.6217   60.9074   50.4152 U2         2 LUT      0.127376
    230 H15        76.8925   64.1076   39.5776 T3         2 LUT      0.093200
    231 H14        76.4983   64.9621   42.4949 T2         2 LUT      0.068865
    232 H12        74.8864   64.2487   43.8339 T1         2 LUT      0.095507
    233 H11        72.3206   63.0398   42.6509 U9         2 LUT      0.068930
    234 H10        72.6388   63.9935   45.4205 U8         2 LUT      0.083911
    235 H1         89.6408   65.2574   30.0005 Q1         2 LUT      0.297311
@<TRIPOS>BOND
    1     6     1 1
    2     7     2 1
    3     8     3 1
    4     9     4 1
    5    11     4 1
    6    12     6 1
    7    13     9 1
    8    16     9 1
    9    25     5 1
   10    25    16 1
   11    26    10 1
   12    26    17 1
   13    27    18 1
   14    28    14 1
   15    28    19 1
   16    29    12 1
   17    30    13 1
   18    31    24 1
   19    32     1 1
   20    32    25 1
   21    33    21 1
   22    33    26 1
   23    34    22 1
   24    34    27 1
   25    35    23 1
   26    35    28 1
   27    36    12 1
   28    36    24 1
   29    37    13 1
   30    37    15 1
   31    38    31 1
   32    39    20 1
   33    39    32 1
   34    40     2 1
   35    40    33 1
   36    41     3 1
   37    41    34 1
   38    42     4 1
   39    42    35 1
   40    43    38 1
   41    44     5 1
   42    44    17 1
   43    44    39 1
   44    45    10 1
   45    45    18 1
   46    45    40 1
   47    46    19 1
   48    46    41 1
   49    47    14 1
   50    47    16 1
   51    47    42 1
   52    48    38 1
   53    49    48 1
   54    50    49 1
   55    51    50 1
   56    52    51 1
   57    53    51 1
   58    54    53 1
   59    55    54 1
   60    56    55 1
   61    57    56 1
   62    58    56 1
   63    59    58 1
   64    60    59 1
   65    61    60 1
   66    62    61 1
   67    63    61 1
   68    64    27 1
   69    64    46 1
   70    65     5 1
   71    65    10 1
   72    65    64 1
   73    65    14 1
   74    66    23 1
   75    67    23 1
   76    68    23 1
   77    69    22 1
   78    70    22 1
   79    71    22 1
   80    72    21 1
   81    73    21 1
   82    74    21 1
   83    75    20 1
   84    76    20 1
   85    77    20 1
   86    78    15 1
   87    79    15 1
   88    80    15 1
   89    81     8 1
   90    82     8 1
   91    83     8 1
   92    84     7 1
   93    85     7 1
   94    86     6 1
   95    87     6 1
   96    88     3 1
   97    89     3 1
   98    90     1 1
   99    91     1 1
  100    92    63 1
  101    93    63 1
  102    94    63 1
  103    95    62 1
  104    96    62 1
  105    97    62 1
  106    98    60 1
  107    99    60 1
  108   100    59 1
  109   101    59 1
  110   102    58 1
  111   103    58 1
  112   104    57 1
  113   105    57 1
  114   106    57 1
  115   107    55 1
  116   108    55 1
  117   109    54 1
  118   110    54 1
  119   111    53 1
  120   112    53 1
  121   113    19 1
  122   114    18 1
  123   115    17 1
  124   116     9 1
  125   117     2 1
  126   118    52 1
  127   119    52 1
  128   120    52 1
  129   121    51 1
  130   122    50 1
  131   123    50 1
  132   124    49 1
  133   125    49 1
  134   126    48 1
  135   127    48 1
  136   128    43 1
  137   129    43 1
  138   130    43 1
  139   131    39 1
  140   132    32 1
  141   133    31 1
  142   134    61 1
  143   135    56 1
  144   136    24 1
  145   137    24 1
  146   139   138 1
  147   140   139 1
  148   141   140 1
  149   142   140 1
  150   143   142 1
  151   144   138 1
  152   144   143 1
  153   145   144 1
  154   146   145 1
  155   147   146 1
  156   148   147 1
  157   149   148 1
  158   150   149 1
  159   151   150 1
  160   152   151 1
  161   153   152 1
  162   154   138 1
  163   155   138 1
  164   156   143 1
  165   157   147 1
  166   158   151 1
  167   160   159 1
  168   161   160 1
  169   162   161 1
  170   163   161 1
  171   164   163 1
  172   165   159 1
  173   165   164 1
  174   166   165 1
  175   167   166 1
  176   168   167 1
  177   169   168 1
  178   170   169 1
  179   171   170 1
  180   172   171 1
  181   173   172 1
  182   174   153 1
  183   174   173 1
  184   175   159 1
  185   176   159 1
  186   177   164 1
  187   178   168 1
  188   179   172 1
  189   180   179 1
  190   181   179 1
  191   182   179 1
  192   183   178 1
  193   184   178 1
  194   185   178 1
  195   186   177 1
  196   187   177 1
  197   188   177 1
  198   189   176 1
  199   190   176 1
  200   191   176 1
  201   192   175 1
  202   193   175 1
  203   194   175 1
  204   195   160 1
  205   196   160 1
  206   197   158 1
  207   198   158 1
  208   199   158 1
  209   200   157 1
  210   201   157 1
  211   202   157 1
  212   203   156 1
  213   204   156 1
  214   205   156 1
  215   206   155 1
  216   207   155 1
  217   208   155 1
  218   209   154 1
  219   210   154 1
  220   211   154 1
  221   212   141 1
  222   213   146 1
  223   214   145 1
  224   215   142 1
  225   216   142 1
  226   217   174 1
  227   218   173 1
  228   219   171 1
  229   220   170 1
  230   221   169 1
  231   222   140 1
  232   223   167 1
  233   224   166 1
  234   225   165 1
  235   226   163 1
  236   227   161 1
  237   228   139 1
  238   229   139 1
  239   230   153 1
  240   231   152 1
  241   232   150 1
  242   233   149 1
  243   234   148 1
  244   235   162 1
  245   65    153 1
  246   65    174 1
@<TRIPOS>SUBSTRUCTURE
      1 CLA               1 ****               0 ****  **** 
      2 LUT             138 ****               0 ****  **** 
