@<TRIPOS>MOLECULE
Cpptraj generated mol2 file.
  235   246     2     0     0
SMALL
USER_CHARGES


@<TRIPOS>ATOM
      1 CAA        80.0406   59.0313   34.0320 a2         1 CLA     -0.055900
      2 CAB        79.5728   62.5891   42.9442 c8         1 CLA     -0.148500
      3 CAC        72.7643   58.3918   41.9895 a2         1 CLA     -0.012600
      4 CAD        75.9976   56.0477   34.8941 ck         1 CLA      0.398800
      5 NA         78.8445   59.1963   37.3153 ns         1 CLA     -0.225500
      6 CBA        81.2788   58.8664   33.1285 a2         1 CLA     -0.135000
      7 CBB        80.4581   63.5200   43.3080 c0         1 CLA     -0.395200
      8 CBC        72.9403   56.8419   42.0677 a3         1 CLA     -0.037700
      9 CBD        77.4071   56.7473   34.6862 a1         1 CLA     -0.053900
     10 NB         78.6628   60.5430   39.9378 nm         1 CLA     -0.295700
     11 OBD        75.5350   55.1104   34.2167 o2         1 CLA     -0.494600
     12 CGA        81.8657   57.5517   32.8610 c4         1 CLA      0.827000
     13 CGD        78.5197   55.7275   34.3975 c4         1 CLA      0.655300
     14 ND         76.0943   58.2159   37.7387 nm         1 CLA     -0.291600
     15 CED        79.3245   53.4315   34.8602 a3         1 CLA      0.005400
     16 CHA        77.7062   57.6821   35.8751 cs         1 CLA     -0.123800
     17 CHB        80.5974   60.5298   38.4145 aa         1 CLA     -0.291900
     18 CHC        77.1512   60.9039   41.8105 aa         1 CLA     -0.090400
     19 CHD        74.2345   57.9814   39.2865 aa         1 CLA     -0.052000
     20 CMA        82.2385   58.3811   37.0470 a3         1 CLA     -0.230700
     21 CMB        81.8910   62.4206   40.5583 a3         1 CLA     -0.180800
     22 CMC        74.6778   60.5494   43.5520 a3         1 CLA     -0.134000
     23 CMD        73.2695   55.8264   36.9491 a3         1 CLA     -0.141100
     24 C1         82.8668   55.6017   33.7521 a2         1 CLA      0.023000
     25 C1A        78.8335   58.3967   36.2034 ac         1 CLA     -0.015100
     26 C1B        79.9266   60.9286   39.6189 cr         1 CLA      0.054700
     27 C1C        76.0269   60.1371   41.4830 cn         1 CLA     -0.005600
     28 C1D        74.8761   57.6713   38.0775 ap         1 CLA     -0.047300
     29 O1A        81.7266   56.9927   31.7879 o2         1 CLA     -0.610800
     30 O1D        79.2547   55.9261   33.4535 o2         1 CLA     -0.558200
     31 C2         83.5216   55.1806   35.1004 c8         1 CLA     -0.325100
     32 C2A        80.1530   58.3902   35.4251 a1         1 CLA      0.098600
     33 C2B        80.5180   61.7671   40.6130 cb         1 CLA      0.088500
     34 C2C        74.8569   59.8994   42.2716 cb         1 CLA      0.053700
     35 C2D        74.4499   56.7536   37.0110 cb         1 CLA      0.058900
     36 O2A        82.5154   56.9644   33.9631 o1         1 CLA     -0.437200
     37 O2D        78.4254   54.5857   35.1203 o1         1 CLA     -0.357600
     38 C3         84.6030   54.4163   35.3534 c5         1 CLA      0.031200
     39 C3A        81.0844   59.1751   36.3805 a1         1 CLA      0.166800
     40 C3B        79.5398   61.8460   41.6760 cb         1 CLA      0.035000
     41 C3C        74.0705   59.0056   41.5941 cb         1 CLA     -0.089900
     42 C3D        75.5298   56.6624   36.1356 cb         1 CLA     -0.035900
     43 C4         84.5454   53.0078   35.8589 a3         1 CLA     -0.053300
     44 C4A        80.0955   59.6790   37.4355 ac         1 CLA      0.001800
     45 C4B        78.3824   61.1054   41.1506 cn         1 CLA     -0.020900
     46 C4C        74.6832   58.8387   40.3035 cr         1 CLA     -0.044400
     47 C4D        76.5244   57.5956   36.6369 c6         1 CLA     -0.046000
     48 C5         86.0526   55.0304   35.2303 a2         1 CLA     -0.070400
     49 C6         86.3306   56.3484   35.8328 a2         1 CLA      0.043900
     50 C7         86.4030   56.0719   37.3758 a2         1 CLA     -0.150000
     51 C8         86.6868   57.2985   38.1530 a1         1 CLA      0.064200
     52 C9         88.0197   58.0206   37.6683 a3         1 CLA     -0.259300
     53 C10        86.8807   56.8747   39.6734 a2         1 CLA     -0.071900
     54 C11        86.9238   58.0557   40.6081 a2         1 CLA      0.014500
     55 C12        87.2819   57.6516   42.0580 a2         1 CLA     -0.112100
     56 C13        87.2455   58.8447   43.1817 a1         1 CLA      0.089200
     57 C14        87.9165   60.1483   42.6906 a3         1 CLA     -0.239100
     58 C15        87.6674   58.4655   44.6103 a2         1 CLA     -0.102200
     59 C16        86.7494   57.4985   45.3256 a2         1 CLA      0.023900
     60 C17        85.3802   58.1610   45.7024 a2         1 CLA     -0.105700
     61 C18        84.5020   57.3942   46.6545 a1         1 CLA      0.206800
     62 C19        84.9533   57.4933   48.0742 a3         1 CLA     -0.280100
     63 C20        83.0543   57.9745   46.6138 a3         1 CLA     -0.280100
     64 NC         75.8922   59.4568   40.3150 nx         1 CLA     -0.309200
     65 MG         77.2696   59.5367   38.7517 mg         1 CLA      0.895000
     66 HMD3       72.3384   56.3107   36.7783 dc         1 CLA      0.064300
     67 HMD2       73.4646   55.2668   36.0631 dc         1 CLA      0.064300
     68 HMD1       73.0748   55.2214   37.8471 dc         1 CLA      0.064300
     69 HMC3       75.2365   60.0570   44.2671 dc         1 CLA      0.052100
     70 HMC2       74.9834   61.5640   43.5147 dc         1 CLA      0.052100
     71 HMC1       73.6708   60.4461   43.8693 dc         1 CLA      0.052100
     72 HMB3       82.5480   61.6270   40.0526 dc         1 CLA      0.063600
     73 HMB2       81.8095   63.4306   40.0921 dc         1 CLA      0.063600
     74 HMB1       82.2305   62.5671   41.5853 dc         1 CLA      0.063600
     75 HMA3       81.8607   57.4500   37.4211 dc         1 CLA      0.058300
     76 HMA2       83.0896   58.2646   36.4060 dc         1 CLA      0.058300
     77 HMA1       82.6829   58.9895   37.8612 dc         1 CLA      0.058300
     78 HED3       80.3314   53.8330   34.8908 dc         1 CLA      0.079300
     79 HED2       79.2644   52.6922   35.6735 dc         1 CLA      0.079300
     80 HED1       78.9994   53.0057   33.8886 dc         1 CLA      0.079300
     81 HBC3       73.6517   56.5513   42.8349 dc         1 CLA      0.016300
     82 HBC2       71.9580   56.4727   42.3176 dc         1 CLA      0.016300
     83 HBC1       73.1125   56.3040   41.1785 dc         1 CLA      0.016300
     84 HBB2       80.3400   64.1470   44.2598 da         1 CLA      0.183000
     85 HBB1       81.2775   63.8592   42.7036 da         1 CLA      0.183000
     86 HBA2       81.0802   59.4949   32.2475 dc         1 CLA      0.029400
     87 HBA1       82.0456   59.4162   33.6893 dc         1 CLA      0.029400
     88 HAC2       72.3447   58.8412   42.9533 dc         1 CLA      0.029300
     89 HAC1       72.0887   58.5966   41.2324 dc         1 CLA      0.029300
     90 HAA2       79.1701   58.6315   33.4552 dc         1 CLA      0.028700
     91 HAA1       79.8965   60.1347   34.2183 dc         1 CLA      0.028700
     92 H203       82.9410   59.0502   46.7693 dc         1 CLA      0.065600
     93 H202       82.6962   57.8872   45.6198 dc         1 CLA      0.065600
     94 H201       82.3259   57.4061   47.3023 dc         1 CLA      0.065600
     95 H193       84.1946   56.8902   48.5943 dc         1 CLA      0.065600
     96 H192       85.9064   56.9990   48.1303 dc         1 CLA      0.065600
     97 H191       85.0365   58.5316   48.4451 dc         1 CLA      0.065600
     98 H172       85.4069   59.1898   46.1670 dc         1 CLA      0.027600
     99 H171       84.8100   58.1405   44.8345 dc         1 CLA      0.027600
    100 H162       86.7065   56.5460   44.7826 dc         1 CLA      0.002900
    101 H161       87.3372   57.2637   46.2159 dc         1 CLA      0.002900
    102 H152       88.6990   58.1712   44.6348 dc         1 CLA      0.029100
    103 H151       87.5875   59.4179   45.1216 dc         1 CLA      0.029100
    104 H143       87.6281   60.3131   41.6933 dc         1 CLA      0.063600
    105 H142       87.5908   61.0136   43.3178 dc         1 CLA      0.063600
    106 H141       88.9556   59.9085   42.8417 dc         1 CLA      0.063600
    107 H122       86.6170   56.8598   42.4193 dc         1 CLA      0.032500
    108 H121       88.3198   57.2835   41.9579 dc         1 CLA      0.032500
    109 H112       87.7139   58.6014   40.2349 dc         1 CLA      0.006600
    110 H111       85.9766   58.5254   40.4786 dc         1 CLA      0.006600
    111 H102       86.0575   56.1981   40.0278 dc         1 CLA      0.024100
    112 H101       87.8346   56.4117   39.8235 dc         1 CLA      0.024100
    113 HHD        73.2413   57.5440   39.4319 da         1 CLA      0.174300
    114 HHC        77.0900   61.2821   42.7725 da         1 CLA      0.136800
    115 HHB        81.6152   60.8779   38.0803 da         1 CLA      0.138300
    116 HBD        77.3335   57.4375   33.8009 dc         1 CLA      0.107700
    117 HAB        78.7573   62.3585   43.6358 da         1 CLA      0.155200
    118 H93        88.7383   57.2647   37.4129 dc         1 CLA      0.069500
    119 H92        87.7841   58.4453   36.7030 dc         1 CLA      0.069500
    120 H91        88.2537   58.8949   38.2240 dc         1 CLA      0.069500
    121 H8         85.7465   58.0332   38.1763 dc         1 CLA      0.029300
    122 H72        85.4539   55.8183   37.6734 dc         1 CLA      0.044400
    123 H71        87.0860   55.2668   37.7067 dc         1 CLA      0.044400
    124 H62        87.1823   56.7123   35.3452 dc         1 CLA      0.015600
    125 H61        85.4455   56.9867   35.6869 dc         1 CLA      0.015600
    126 H52        86.6413   54.3044   35.6896 dc         1 CLA      0.033200
    127 H51        86.3274   55.1110   34.1975 dc         1 CLA      0.033200
    128 H43        85.0282   52.9269   36.8393 dc         1 CLA      0.037000
    129 H42        83.4925   52.8856   36.0404 dc         1 CLA      0.037000
    130 H41        84.9321   52.2282   35.1673 dc         1 CLA      0.037000
    131 H3A        81.4926   60.1037   36.0050 dc         1 CLA      0.041100
    132 H2A        80.5833   57.3434   35.3351 dc         1 CLA      0.083100
    133 H2         83.3114   56.0068   35.8722 da         1 CLA      0.180900
    134 H18        84.5730   56.3782   46.3461 dc         1 CLA     -0.003900
    135 H13        86.2020   59.2693   43.1582 dc         1 CLA      0.019700
    136 H12        81.9460   55.0472   33.6153 dc         1 CLA      0.120400
    137 H11        83.5143   55.4337   32.8905 dc         1 CLA      0.120400
    138 C1         69.2738   62.0705   49.6330 Z1         2 LUT      0.509236
    139 C2         67.8190   62.0954   50.1132 Z2         2 LUT     -0.434695
    140 C3         67.1515   63.4087   50.5676 Z3         2 LUT      0.437453
    141 O3         67.4252   63.7250   51.8874 S1         2 LUT     -0.547129
    142 C4         67.6567   64.5480   49.6901 Z4         2 LUT     -0.468603
    143 C5         68.4444   64.1349   48.4608 Z5         2 LUT      0.279246
    144 C6         69.2619   63.0226   48.3965 Z6         2 LUT     -0.305473
    145 C7         69.8734   62.4564   47.0973 Z7         2 LUT      0.069402
    146 C8         70.9402   63.0330   46.4561 Z8         2 LUT     -0.191631
    147 C9         71.4874   62.7097   45.1316 Z9         2 LUT      0.196698
    148 C10        72.4607   63.5062   44.5787 Y1         2 LUT     -0.208611
    149 C11        73.0674   63.3754   43.3533 Y2         2 LUT      0.030784
    150 C12        74.1431   64.1646   42.9205 Y3         2 LUT     -0.220316
    151 C13        74.9887   64.0636   41.7293 Y4         2 LUT      0.215937
    152 C14        76.1862   64.7184   41.8939 Y5         2 LUT     -0.185793
    153 C15        77.2857   64.8518   41.0428 Y6         2 LUT     -0.057835
    154 C16        69.7117   60.6426   49.5137 Y7         2 LUT     -0.405615
    155 C17        70.1180   62.6745   50.7985 Y7         2 LUT     -0.405615
    156 C18        67.9520   64.9572   47.3058 Y9         2 LUT     -0.369639
    157 C19        70.9416   61.5167   44.4135 W1         2 LUT     -0.333362
    158 C20        74.6555   63.1287   40.5019 W2         2 LUT     -0.323439
    159 C21        88.4903   65.6607   34.7865 Z1         2 LUT      0.406104
    160 C22        89.1213   64.9337   33.6048 Z2         2 LUT     -0.404965
    161 C23        89.4761   65.7297   32.4125 Z3         2 LUT      0.391255
    162 O23        90.0093   64.7966   31.4793 S1         2 LUT     -0.528210
    163 C24        88.3259   66.6770   32.0434 W6         2 LUT     -0.258361
    164 C25        87.1880   66.8412   32.8029 Z5         2 LUT      0.133546
    165 C26        87.0472   66.1691   34.2158 W8         2 LUT     -0.147008
    166 C27        86.3577   67.0009   35.1863 Z7         2 LUT      0.023843
    167 C28        85.3002   66.5627   35.9049 Z8         2 LUT     -0.216987
    168 C29        84.7191   67.0100   37.1818 Z9         2 LUT      0.206524
    169 C30        83.4884   66.4270   37.5766 Y1         2 LUT     -0.215556
    170 C31        82.7528   66.6200   38.8559 Y2         2 LUT      0.025142
    171 C32        81.5308   66.1112   39.1034 Y3         2 LUT     -0.212209
    172 C33        80.6873   66.1838   40.2434 Y4         2 LUT      0.240937
    173 C34        79.4346   65.6176   40.1597 Y5         2 LUT     -0.218862
    174 C35        78.4386   65.5263   41.2065 Y6         2 LUT     -0.023547
    175 C36        89.4706   66.7793   35.3750 Y7         2 LUT     -0.393485
    176 C37        88.1925   64.6571   35.8681 Y7         2 LUT     -0.393485
    177 C38        86.1376   67.7916   32.3543 Y9         2 LUT     -0.387526
    178 C39        85.5845   67.8958   38.0718 W1         2 LUT     -0.322618
    179 C40        81.1768   67.0103   41.4846 W2         2 LUT     -0.358472
    180 H403       80.5307   66.9756   42.3974 R7         2 LUT      0.097720
    181 H402       82.2023   66.7102   41.7454 R7         2 LUT      0.097720
    182 H401       81.2654   68.0366   41.1079 R7         2 LUT      0.097720
    183 H393       85.8917   68.7256   37.4409 R4         2 LUT      0.082505
    184 H392       85.0922   68.2936   39.0043 R4         2 LUT      0.082505
    185 H391       86.5111   67.4579   38.3392 R4         2 LUT      0.082505
    186 H383       86.5906   68.2124   31.3769 R1         2 LUT      0.104030
    187 H382       85.2275   67.3520   32.0165 R1         2 LUT      0.104030
    188 H381       86.0152   68.5409   33.1264 R1         2 LUT      0.104030
    189 H373       88.9707   64.1595   36.3160 T4         2 LUT      0.089537
    190 H372       87.5626   64.9041   36.7308 T4         2 LUT      0.089537
    191 H371       87.6660   63.8878   35.3707 T4         2 LUT      0.089537
    192 H363       89.7309   67.5593   34.6030 T4         2 LUT      0.089537
    193 H362       89.0448   67.3524   36.2530 T4         2 LUT      0.089537
    194 H361       90.4548   66.4274   35.7319 T4         2 LUT      0.089537
    195 H222       90.0466   64.5793   34.0343 U2         2 LUT      0.127376
    196 H221       88.4697   64.1674   33.1472 U2         2 LUT      0.127376
    197 H203       75.3973   63.2386   39.6900 R7         2 LUT      0.087068
    198 H202       74.5662   62.0738   40.8485 R7         2 LUT      0.087068
    199 H201       73.6801   63.4409   40.0257 R7         2 LUT      0.087068
    200 H193       71.2417   61.2241   43.4075 R4         2 LUT      0.089716
    201 H192       71.0724   60.6928   45.0335 R4         2 LUT      0.089716
    202 H191       69.8966   61.6184   44.2430 R4         2 LUT      0.089716
    203 H183       68.2442   64.5237   46.3460 R1         2 LUT      0.094572
    204 H182       66.8417   65.0693   47.3431 R1         2 LUT      0.094572
    205 H181       68.3204   66.0369   47.3225 R1         2 LUT      0.094572
    206 H173       70.0569   61.9841   51.6697 T4         2 LUT      0.093752
    207 H172       71.1953   62.7330   50.5377 T4         2 LUT      0.093752
    208 H171       69.7595   63.7121   50.9758 T4         2 LUT      0.093752
    209 H163       70.7187   60.6106   48.9982 T4         2 LUT      0.093752
    210 H162       69.8119   60.0947   50.4281 T4         2 LUT      0.093752
    211 H161       69.0462   59.9676   48.9770 T4         2 LUT      0.093752
    212 HO3        66.7798   63.3066   52.4437 Q1         2 LUT      0.300121
    213 H8         71.3641   63.9844   46.8375 U7         2 LUT      0.080784
    214 H7         69.3780   61.6139   46.6650 U6         2 LUT      0.042190
    215 H42        66.8522   65.2020   49.3563 U5         2 LUT      0.145166
    216 H41        68.2686   65.0876   50.2640 U5         2 LUT      0.145166
    217 H35        78.7140   65.9546   42.1484 T3         2 LUT      0.077919
    218 H34        79.1653   65.2085   39.1599 T2         2 LUT      0.073626
    219 H32        81.0961   65.5209   38.2964 T1         2 LUT      0.092510
    220 H31        83.1188   67.3464   39.5924 U9         2 LUT      0.070048
    221 H30        83.0614   65.7523   36.9285 U8         2 LUT      0.085442
    222 H3         66.0195   63.3599   50.3385 U3         2 LUT     -0.031596
    223 H28        84.8015   65.7830   35.4419 U7         2 LUT      0.084728
    224 H27        86.8481   67.8511   35.6066 U6         2 LUT      0.087291
    225 H26        86.3878   65.2825   34.0191 Q6         2 LUT      0.075325
    226 H24        88.4548   67.2525   31.1160 Q5         2 LUT      0.094482
    227 H23        90.3909   66.2222   32.7424 U3         2 LUT     -0.024869
    228 H22        67.2187   61.7316   49.3165 U2         2 LUT      0.127376
    229 H21        67.8479   61.4717   50.9598 U2         2 LUT      0.127376
    230 H15        77.1284   64.4159   40.0447 T3         2 LUT      0.093200
    231 H14        76.3417   65.2154   42.8506 T2         2 LUT      0.068865
    232 H12        74.5219   64.8017   43.7440 T1         2 LUT      0.095507
    233 H11        72.8331   62.6620   42.5816 U9         2 LUT      0.068930
    234 H10        72.8021   64.3111   45.2335 U8         2 LUT      0.083911
    235 H1         90.1582   65.2477   30.6110 Q1         2 LUT      0.297311
@<TRIPOS>BOND
    1     6     1 1
    2     7     2 1
    3     8     3 1
    4     9     4 1
    5    11     4 1
    6    12     6 1
    7    13     9 1
    8    16     9 1
    9    25     5 1
   10    25    16 1
   11    26    10 1
   12    26    17 1
   13    27    18 1
   14    28    14 1
   15    28    19 1
   16    29    12 1
   17    30    13 1
   18    31    24 1
   19    32     1 1
   20    32    25 1
   21    33    21 1
   22    33    26 1
   23    34    22 1
   24    34    27 1
   25    35    23 1
   26    35    28 1
   27    36    12 1
   28    36    24 1
   29    37    13 1
   30    37    15 1
   31    38    31 1
   32    39    20 1
   33    39    32 1
   34    40     2 1
   35    40    33 1
   36    41     3 1
   37    41    34 1
   38    42     4 1
   39    42    35 1
   40    43    38 1
   41    44     5 1
   42    44    17 1
   43    44    39 1
   44    45    10 1
   45    45    18 1
   46    45    40 1
   47    46    19 1
   48    46    41 1
   49    47    14 1
   50    47    16 1
   51    47    42 1
   52    48    38 1
   53    49    48 1
   54    50    49 1
   55    51    50 1
   56    52    51 1
   57    53    51 1
   58    54    53 1
   59    55    54 1
   60    56    55 1
   61    57    56 1
   62    58    56 1
   63    59    58 1
   64    60    59 1
   65    61    60 1
   66    62    61 1
   67    63    61 1
   68    64    27 1
   69    64    46 1
   70    65     5 1
   71    65    10 1
   72    65    64 1
   73    65    14 1
   74    66    23 1
   75    67    23 1
   76    68    23 1
   77    69    22 1
   78    70    22 1
   79    71    22 1
   80    72    21 1
   81    73    21 1
   82    74    21 1
   83    75    20 1
   84    76    20 1
   85    77    20 1
   86    78    15 1
   87    79    15 1
   88    80    15 1
   89    81     8 1
   90    82     8 1
   91    83     8 1
   92    84     7 1
   93    85     7 1
   94    86     6 1
   95    87     6 1
   96    88     3 1
   97    89     3 1
   98    90     1 1
   99    91     1 1
  100    92    63 1
  101    93    63 1
  102    94    63 1
  103    95    62 1
  104    96    62 1
  105    97    62 1
  106    98    60 1
  107    99    60 1
  108   100    59 1
  109   101    59 1
  110   102    58 1
  111   103    58 1
  112   104    57 1
  113   105    57 1
  114   106    57 1
  115   107    55 1
  116   108    55 1
  117   109    54 1
  118   110    54 1
  119   111    53 1
  120   112    53 1
  121   113    19 1
  122   114    18 1
  123   115    17 1
  124   116     9 1
  125   117     2 1
  126   118    52 1
  127   119    52 1
  128   120    52 1
  129   121    51 1
  130   122    50 1
  131   123    50 1
  132   124    49 1
  133   125    49 1
  134   126    48 1
  135   127    48 1
  136   128    43 1
  137   129    43 1
  138   130    43 1
  139   131    39 1
  140   132    32 1
  141   133    31 1
  142   134    61 1
  143   135    56 1
  144   136    24 1
  145   137    24 1
  146   139   138 1
  147   140   139 1
  148   141   140 1
  149   142   140 1
  150   143   142 1
  151   144   138 1
  152   144   143 1
  153   145   144 1
  154   146   145 1
  155   147   146 1
  156   148   147 1
  157   149   148 1
  158   150   149 1
  159   151   150 1
  160   152   151 1
  161   153   152 1
  162   154   138 1
  163   155   138 1
  164   156   143 1
  165   157   147 1
  166   158   151 1
  167   160   159 1
  168   161   160 1
  169   162   161 1
  170   163   161 1
  171   164   163 1
  172   165   159 1
  173   165   164 1
  174   166   165 1
  175   167   166 1
  176   168   167 1
  177   169   168 1
  178   170   169 1
  179   171   170 1
  180   172   171 1
  181   173   172 1
  182   174   153 1
  183   174   173 1
  184   175   159 1
  185   176   159 1
  186   177   164 1
  187   178   168 1
  188   179   172 1
  189   180   179 1
  190   181   179 1
  191   182   179 1
  192   183   178 1
  193   184   178 1
  194   185   178 1
  195   186   177 1
  196   187   177 1
  197   188   177 1
  198   189   176 1
  199   190   176 1
  200   191   176 1
  201   192   175 1
  202   193   175 1
  203   194   175 1
  204   195   160 1
  205   196   160 1
  206   197   158 1
  207   198   158 1
  208   199   158 1
  209   200   157 1
  210   201   157 1
  211   202   157 1
  212   203   156 1
  213   204   156 1
  214   205   156 1
  215   206   155 1
  216   207   155 1
  217   208   155 1
  218   209   154 1
  219   210   154 1
  220   211   154 1
  221   212   141 1
  222   213   146 1
  223   214   145 1
  224   215   142 1
  225   216   142 1
  226   217   174 1
  227   218   173 1
  228   219   171 1
  229   220   170 1
  230   221   169 1
  231   222   140 1
  232   223   167 1
  233   224   166 1
  234   225   165 1
  235   226   163 1
  236   227   161 1
  237   228   139 1
  238   229   139 1
  239   230   153 1
  240   231   152 1
  241   232   150 1
  242   233   149 1
  243   234   148 1
  244   235   162 1
  245   65    153 1
  246   65    174 1
@<TRIPOS>SUBSTRUCTURE
      1 CLA               1 ****               0 ****  **** 
      2 LUT             138 ****               0 ****  **** 
