@<TRIPOS>MOLECULE
Cpptraj generated mol2 file.
  235   246     2     0     0
SMALL
USER_CHARGES


@<TRIPOS>ATOM
      1 CAA        77.4861   57.8296   34.7027 a2         1 CLA     -0.055900
      2 CAB        77.8100   62.5026   43.4371 c8         1 CLA     -0.148500
      3 CAC        70.6150   58.6853   43.0827 a2         1 CLA     -0.012600
      4 CAD        73.6053   55.3180   36.3234 ck         1 CLA      0.398800
      5 NA         76.5295   58.8087   37.9062 ns         1 CLA     -0.225500
      6 CBA        78.7103   57.5395   33.8011 a2         1 CLA     -0.135000
      7 CBB        76.9139   63.1543   44.1934 c0         1 CLA     -0.395200
      8 CBC        70.7669   57.8350   44.3602 a3         1 CLA     -0.037700
      9 CBD        74.9772   55.8005   35.9674 a1         1 CLA     -0.053900
     10 NB         76.5061   60.4219   40.5524 nm         1 CLA     -0.295700
     11 OBD        72.9983   54.3533   35.8745 o2         1 CLA     -0.494600
     12 CGA        78.9435   56.0772   33.4058 c4         1 CLA      0.827000
     13 CGD        75.9398   54.6216   36.2330 c4         1 CLA      0.655300
     14 ND         73.8570   57.8729   38.6597 nm         1 CLA     -0.291600
     15 CED        76.3373   52.8406   37.8003 a3         1 CLA      0.005400
     16 CHA        75.2116   57.0852   36.7750 cs         1 CLA     -0.123800
     17 CHB        78.3406   60.1026   38.9829 aa         1 CLA     -0.291900
     18 CHC        75.2058   60.9112   42.6173 aa         1 CLA     -0.090400
     19 CHD        71.9555   58.0565   40.1995 aa         1 CLA     -0.052000
     20 CMA        79.7348   57.4940   37.6601 a3         1 CLA     -0.230700
     21 CMB        79.8762   61.9479   40.8204 a3         1 CLA     -0.180800
     22 CMC        72.7946   60.5368   44.6867 a3         1 CLA     -0.134000
     23 CMD        70.7993   55.9107   38.2814 a3         1 CLA     -0.141100
     24 C1         80.2890   54.1628   34.0470 a2         1 CLA      0.023000
     25 C1A        76.4080   57.8122   36.9572 ac         1 CLA     -0.015100
     26 C1B        77.7607   60.6952   40.1542 cr         1 CLA      0.054700
     27 C1C        74.0599   60.1385   42.3171 cn         1 CLA     -0.005600
     28 C1D        72.5888   57.5485   39.0337 ap         1 CLA     -0.047300
     29 O1A        78.7024   55.5913   32.2918 o2         1 CLA     -0.610800
     30 O1D        76.4479   54.0164   35.3174 o2         1 CLA     -0.558200
     31 C2         80.4466   53.3201   35.2756 c8         1 CLA     -0.325100
     32 C2A        77.6572   57.5885   36.1883 a1         1 CLA      0.098600
     33 C2B        78.4207   61.5675   41.0829 cb         1 CLA      0.088500
     34 C2C        72.8451   60.0039   43.2828 cb         1 CLA      0.053700
     35 C2D        72.1333   56.5608   38.1497 cb         1 CLA      0.058900
     36 O2A        79.6478   55.4656   34.4022 o1         1 CLA     -0.437200
     37 O2D        75.9871   54.2411   37.5873 o1         1 CLA     -0.357600
     38 C3         81.5116   52.9557   36.0018 c5         1 CLA      0.031200
     39 C3A        78.7367   58.5022   36.9885 a1         1 CLA      0.166800
     40 C3B        77.5749   61.7707   42.1597 cb         1 CLA      0.035000
     41 C3C        71.8772   59.2696   42.5267 cb         1 CLA     -0.089900
     42 C3D        73.2310   56.2506   37.3549 cb         1 CLA     -0.035900
     43 C4         82.2658   51.7260   35.6352 a3         1 CLA     -0.053300
     44 C4A        77.8251   59.2475   37.9971 ac         1 CLA      0.001800
     45 C4B        76.3382   61.0378   41.8174 cn         1 CLA     -0.020900
     46 C4C        72.5102   58.8808   41.1974 cr         1 CLA     -0.044400
     47 C4D        74.1138   57.1820   37.6103 c6         1 CLA     -0.046000
     48 C5         81.9783   53.6885   37.2870 a2         1 CLA     -0.070400
     49 C6         82.9156   54.8033   37.1061 a2         1 CLA      0.043900
     50 C7         83.0462   55.5114   38.5118 a2         1 CLA     -0.150000
     51 C8         83.8425   56.8204   38.6157 a1         1 CLA      0.064200
     52 C9         85.2066   56.7744   38.0676 a3         1 CLA     -0.259300
     53 C10        83.9106   57.5070   40.0786 a2         1 CLA     -0.071900
     54 C11        82.5393   57.8910   40.5483 a2         1 CLA      0.014500
     55 C12        82.6732   58.8762   41.6609 a2         1 CLA     -0.112100
     56 C13        83.2400   58.4358   43.0062 a1         1 CLA      0.089200
     57 C14        82.4951   57.2375   43.6421 a3         1 CLA     -0.239100
     58 C15        83.6814   59.5593   43.9514 a2         1 CLA     -0.102200
     59 C16        82.5231   60.2902   44.6989 a2         1 CLA      0.023900
     60 C17        83.2699   61.1879   45.7487 a2         1 CLA     -0.105700
     61 C18        82.3768   61.9688   46.7280 a1         1 CLA      0.206800
     62 C19        83.1546   62.5799   47.8990 a3         1 CLA     -0.280100
     63 C20        81.5736   63.1039   45.9660 a3         1 CLA     -0.280100
     64 NC         73.7919   59.4948   41.1070 nx         1 CLA     -0.309200
     65 MG         75.1144   59.2968   39.4519 mg         1 CLA      0.895000
     66 HMD3       70.3601   55.8275   37.2883 dc         1 CLA      0.064300
     67 HMD2       70.8398   54.8899   38.6446 dc         1 CLA      0.064300
     68 HMD1       70.1087   56.5140   38.8186 dc         1 CLA      0.064300
     69 HMC3       73.0868   59.6369   45.2783 dc         1 CLA      0.052100
     70 HMC2       73.5245   61.4363   44.7263 dc         1 CLA      0.052100
     71 HMC1       71.8041   60.8269   45.0307 dc         1 CLA      0.052100
     72 HMB3       80.1188   62.7978   41.5173 dc         1 CLA      0.063600
     73 HMB2       80.6037   61.1081   40.8480 dc         1 CLA      0.063600
     74 HMB1       80.0057   62.4813   39.8208 dc         1 CLA      0.063600
     75 HMA3       79.3073   56.8626   38.4083 dc         1 CLA      0.058300
     76 HMA2       80.1136   56.8178   36.9416 dc         1 CLA      0.058300
     77 HMA1       80.6392   58.0711   38.0677 dc         1 CLA      0.058300
     78 HED3       76.3786   52.7014   38.9010 dc         1 CLA      0.079300
     79 HED2       75.5820   52.1743   37.2126 dc         1 CLA      0.079300
     80 HED1       77.3503   52.5620   37.4464 dc         1 CLA      0.079300
     81 HBC3       69.7875   57.4687   44.6678 dc         1 CLA      0.016300
     82 HBC2       71.5033   56.9702   44.2389 dc         1 CLA      0.016300
     83 HBC1       71.2455   58.4231   45.1487 dc         1 CLA      0.016300
     84 HBB2       77.2355   63.7398   45.0534 da         1 CLA      0.183000
     85 HBB1       75.8208   63.2791   43.8750 da         1 CLA      0.183000
     86 HBA2       78.4246   57.9544   32.7976 dc         1 CLA      0.029400
     87 HBA1       79.5948   58.0275   34.1433 dc         1 CLA      0.029400
     88 HAC2       69.9784   59.5482   43.2326 dc         1 CLA      0.029300
     89 HAC1       70.2219   57.9772   42.3211 dc         1 CLA      0.029300
     90 HAA2       76.6846   57.2148   34.2820 dc         1 CLA      0.028700
     91 HAA1       77.3188   58.8957   34.4935 dc         1 CLA      0.028700
     92 H203       82.0897   63.9783   45.7741 dc         1 CLA      0.065600
     93 H202       81.0392   62.7237   45.0915 dc         1 CLA      0.065600
     94 H201       80.7907   63.2587   46.7191 dc         1 CLA      0.065600
     95 H193       83.8801   63.2781   47.4750 dc         1 CLA      0.065600
     96 H192       82.4496   63.3181   48.3947 dc         1 CLA      0.065600
     97 H191       83.5973   61.9128   48.6118 dc         1 CLA      0.065600
     98 H172       83.9675   60.6105   46.3199 dc         1 CLA      0.027600
     99 H171       83.8350   61.9156   45.2289 dc         1 CLA      0.027600
    100 H162       81.9437   60.8740   43.9851 dc         1 CLA      0.002900
    101 H161       81.8353   59.6372   45.2146 dc         1 CLA      0.002900
    102 H152       84.2402   58.9866   44.6751 dc         1 CLA      0.029100
    103 H151       84.2159   60.3231   43.3895 dc         1 CLA      0.029100
    104 H143       83.0079   57.0257   44.5635 dc         1 CLA      0.063600
    105 H142       81.4508   57.4759   44.0100 dc         1 CLA      0.063600
    106 H141       82.5988   56.3528   43.0227 dc         1 CLA      0.063600
    107 H122       83.1836   59.7589   41.4091 dc         1 CLA      0.032500
    108 H121       81.6089   59.1232   41.9481 dc         1 CLA      0.032500
    109 H112       82.0224   58.3741   39.7003 dc         1 CLA      0.006600
    110 H111       81.9936   57.0032   40.6946 dc         1 CLA      0.006600
    111 H102       84.2660   56.7542   40.6807 dc         1 CLA      0.024100
    112 H101       84.5688   58.3876   40.0146 dc         1 CLA      0.024100
    113 HHD        71.0005   57.5510   40.3428 da         1 CLA      0.174300
    114 HHC        75.2453   61.2463   43.6402 da         1 CLA      0.136800
    115 HHB        79.3655   60.2707   38.8110 da         1 CLA      0.138300
    116 HBD        74.8329   56.0580   34.9238 dc         1 CLA      0.107700
    117 HAB        78.8342   62.5304   43.7318 da         1 CLA      0.155200
    118 H93        85.9632   56.2007   38.6297 dc         1 CLA      0.069500
    119 H92        85.1605   56.3862   37.0119 dc         1 CLA      0.069500
    120 H91        85.5720   57.7566   37.9276 dc         1 CLA      0.069500
    121 H8         83.3041   57.4629   37.8654 dc         1 CLA      0.029300
    122 H72        82.0405   55.7268   38.8639 dc         1 CLA      0.044400
    123 H71        83.4784   54.7326   39.1032 dc         1 CLA      0.044400
    124 H62        83.9044   54.5015   36.7679 dc         1 CLA      0.015600
    125 H61        82.5390   55.5196   36.3866 dc         1 CLA      0.015600
    126 H52        81.1231   54.0966   37.7273 dc         1 CLA      0.033200
    127 H51        82.3822   52.9411   38.0338 dc         1 CLA      0.033200
    128 H43        81.6563   51.2246   34.8790 dc         1 CLA      0.037000
    129 H42        83.2334   51.9630   35.1867 dc         1 CLA      0.037000
    130 H41        82.4305   50.9800   36.4510 dc         1 CLA      0.037000
    131 H3A        79.1617   59.3095   36.3990 dc         1 CLA      0.041100
    132 H2A        77.9662   56.5720   36.2563 dc         1 CLA      0.083100
    133 H2         79.5273   52.7943   35.5745 da         1 CLA      0.180900
    134 H18        81.7159   61.2778   47.2096 dc         1 CLA     -0.003900
    135 H13        84.1386   57.9898   42.6154 dc         1 CLA      0.019700
    136 H12        79.6198   53.6416   33.4214 dc         1 CLA      0.120400
    137 H11        81.2745   54.2642   33.4976 dc         1 CLA      0.120400
    138 C1         67.4382   62.5454   50.7398 Z1         2 LUT      0.509236
    139 C2         67.2641   63.7977   51.5393 Z2         2 LUT     -0.434695
    140 C3         65.9837   64.5326   51.5372 Z3         2 LUT      0.437453
    141 O3         66.2988   65.9134   51.8054 S1         2 LUT     -0.547129
    142 C4         65.2459   64.3899   50.1940 Z4         2 LUT     -0.468603
    143 C5         65.9891   63.7344   49.0764 Z5         2 LUT      0.279246
    144 C6         66.9661   62.8200   49.2584 Z6         2 LUT     -0.305473
    145 C7         67.8571   62.2726   48.2200 Z7         2 LUT      0.069402
    146 C8         68.3401   62.9743   47.1093 Z8         2 LUT     -0.191631
    147 C9         68.7921   62.5656   45.7979 Z9         2 LUT      0.196698
    148 C10        69.7971   63.3585   45.1946 Y1         2 LUT     -0.208611
    149 C11        70.4649   63.1402   44.0152 Y2         2 LUT      0.030784
    150 C12        71.5965   63.7407   43.4940 Y3         2 LUT     -0.220316
    151 C13        72.4477   63.4778   42.3106 Y4         2 LUT      0.215937
    152 C14        73.6319   64.2174   42.2540 Y5         2 LUT     -0.185793
    153 C15        74.6635   64.0482   41.2348 Y6         2 LUT     -0.057835
    154 C16        66.5773   61.4622   51.3682 Y7         2 LUT     -0.405615
    155 C17        68.9150   62.0128   50.8984 Y7         2 LUT     -0.405615
    156 C18        65.7679   64.5034   47.7703 Y9         2 LUT     -0.369639
    157 C19        68.2723   61.2422   45.2691 W1         2 LUT     -0.333362
    158 C20        71.8839   62.7983   41.1082 W2         2 LUT     -0.323439
    159 C21        86.5539   65.3051   35.8881 Z1         2 LUT      0.406104
    160 C22        87.2098   64.4928   34.6808 Z2         2 LUT     -0.404965
    161 C23        87.2681   65.2267   33.2838 Z3         2 LUT      0.391255
    162 O23        87.0217   64.1758   32.2689 S1         2 LUT     -0.528210
    163 C24        86.1206   66.2149   33.1672 W6         2 LUT     -0.258361
    164 C25        85.1043   66.4174   34.0601 Z5         2 LUT      0.133546
    165 C26        85.1065   65.7832   35.4182 W8         2 LUT     -0.147008
    166 C27        84.1890   66.4027   36.4551 Z7         2 LUT      0.023843
    167 C28        83.0042   65.8816   36.8425 Z8         2 LUT     -0.216987
    168 C29        82.2188   66.3692   37.9552 Z9         2 LUT      0.206524
    169 C30        81.1640   65.6576   38.2835 Y1         2 LUT     -0.215556
    170 C31        80.2126   65.8367   39.3706 Y2         2 LUT      0.025142
    171 C32        79.0932   65.1441   39.5545 Y3         2 LUT     -0.212209
    172 C33        78.1179   65.3039   40.6128 Y4         2 LUT      0.240937
    173 C34        76.9016   64.7359   40.4210 Y5         2 LUT     -0.218862
    174 C35        75.7964   64.8283   41.3561 Y6         2 LUT     -0.023547
    175 C36        87.4831   66.4704   36.3183 Y7         2 LUT     -0.393485
    176 C37        86.5288   64.3220   37.1085 Y7         2 LUT     -0.393485
    177 C38        83.9954   67.4736   33.7957 Y9         2 LUT     -0.387526
    178 C39        82.6438   67.6027   38.6986 W1         2 LUT     -0.322618
    179 C40        78.3945   66.2260   41.7823 W2         2 LUT     -0.358472
    180 H403       78.4834   67.2191   41.4373 R7         2 LUT      0.097720
    181 H402       77.6644   66.2362   42.5735 R7         2 LUT      0.097720
    182 H401       79.2761   65.9162   42.2999 R7         2 LUT      0.097720
    183 H393       83.4410   68.2867   38.2060 R4         2 LUT      0.082505
    184 H392       81.8074   68.2598   38.9401 R4         2 LUT      0.082505
    185 H391       83.0146   67.3973   39.7631 R4         2 LUT      0.082505
    186 H383       82.9582   67.0301   34.0379 R1         2 LUT      0.104030
    187 H382       84.0878   68.3527   34.5018 R1         2 LUT      0.104030
    188 H381       84.1204   68.0123   32.8187 R1         2 LUT      0.104030
    189 H373       85.7820   64.6499   37.8627 T4         2 LUT      0.089537
    190 H372       86.2052   63.3168   36.7254 T4         2 LUT      0.089537
    191 H371       87.4952   64.0093   37.5170 T4         2 LUT      0.089537
    192 H363       87.6520   67.0756   35.4091 T4         2 LUT      0.089537
    193 H362       87.0445   67.2217   36.9150 T4         2 LUT      0.089537
    194 H361       88.4448   66.0394   36.6690 T4         2 LUT      0.089537
    195 H222       88.2281   64.2038   34.7862 U2         2 LUT      0.127376
    196 H221       86.7091   63.5323   34.4711 U2         2 LUT      0.127376
    197 H203       72.5285   62.5737   40.1820 R7         2 LUT      0.087068
    198 H202       71.5002   61.7737   41.3543 R7         2 LUT      0.087068
    199 H201       71.0630   63.3676   40.7451 R7         2 LUT      0.087068
    200 H193       68.9220   60.4021   45.5160 R4         2 LUT      0.089716
    201 H192       67.2319   60.9427   45.5293 R4         2 LUT      0.089716
    202 H191       68.3644   61.3178   44.2226 R4         2 LUT      0.089716
    203 H183       64.7117   64.5850   47.6037 R1         2 LUT      0.094572
    204 H182       66.1555   65.5807   47.7035 R1         2 LUT      0.094572
    205 H181       66.0565   63.9644   46.8854 R1         2 LUT      0.094572
    206 H173       69.0675   61.0950   50.3563 T4         2 LUT      0.093752
    207 H172       69.6500   62.7805   50.5613 T4         2 LUT      0.093752
    208 H171       69.1330   61.7988   51.9245 T4         2 LUT      0.093752
    209 H163       66.4902   60.5559   50.6935 T4         2 LUT      0.093752
    210 H162       66.9099   61.1552   52.3030 T4         2 LUT      0.093752
    211 H161       65.5270   61.7722   51.4684 T4         2 LUT      0.093752
    212 HO3        65.5213   66.3608   52.1698 Q1         2 LUT      0.300121
    213 H8         68.3580   64.0828   47.2817 U7         2 LUT      0.080784
    214 H7         67.9608   61.1542   48.1775 U6         2 LUT      0.042190
    215 H42        64.3425   63.7785   50.3346 U5         2 LUT      0.145166
    216 H41        64.7294   65.2857   49.8835 U5         2 LUT      0.145166
    217 H35        75.7783   65.7525   42.0267 T3         2 LUT      0.077919
    218 H34        76.7632   64.2140   39.4374 T2         2 LUT      0.073626
    219 H32        78.8132   64.3918   38.7757 T1         2 LUT      0.092510
    220 H31        80.4893   66.3178   40.2500 U9         2 LUT      0.070048
    221 H30        80.9781   64.7749   37.5896 U8         2 LUT      0.085442
    222 H3         65.2872   64.0360   52.2518 U3         2 LUT     -0.031596
    223 H28        82.5082   65.0094   36.3465 U7         2 LUT      0.084728
    224 H27        84.6157   67.3062   36.8537 U6         2 LUT      0.087291
    225 H26        84.6749   64.6831   35.2248 Q6         2 LUT      0.075325
    226 H24        86.2289   66.7095   32.2405 Q5         2 LUT      0.094482
    227 H23        88.2345   65.7650   33.2779 U3         2 LUT     -0.024869
    228 H22        67.3195   63.5096   52.6333 U2         2 LUT      0.127376
    229 H21        67.9686   64.5491   51.2955 U2         2 LUT      0.127376
    230 H15        74.6476   63.2906   40.4271 T3         2 LUT      0.093200
    231 H14        73.8604   64.8831   43.0392 T2         2 LUT      0.068865
    232 H12        72.0028   64.4921   44.1020 T1         2 LUT      0.095507
    233 H11        70.1409   62.2543   43.5763 U9         2 LUT      0.068930
    234 H10        70.1693   64.2275   45.7608 U8         2 LUT      0.083911
    235 H1         87.3101   64.4544   31.4154 Q1         2 LUT      0.297311
@<TRIPOS>BOND
    1     6     1 1
    2     7     2 1
    3     8     3 1
    4     9     4 1
    5    11     4 1
    6    12     6 1
    7    13     9 1
    8    16     9 1
    9    25     5 1
   10    25    16 1
   11    26    10 1
   12    26    17 1
   13    27    18 1
   14    28    14 1
   15    28    19 1
   16    29    12 1
   17    30    13 1
   18    31    24 1
   19    32     1 1
   20    32    25 1
   21    33    21 1
   22    33    26 1
   23    34    22 1
   24    34    27 1
   25    35    23 1
   26    35    28 1
   27    36    12 1
   28    36    24 1
   29    37    13 1
   30    37    15 1
   31    38    31 1
   32    39    20 1
   33    39    32 1
   34    40     2 1
   35    40    33 1
   36    41     3 1
   37    41    34 1
   38    42     4 1
   39    42    35 1
   40    43    38 1
   41    44     5 1
   42    44    17 1
   43    44    39 1
   44    45    10 1
   45    45    18 1
   46    45    40 1
   47    46    19 1
   48    46    41 1
   49    47    14 1
   50    47    16 1
   51    47    42 1
   52    48    38 1
   53    49    48 1
   54    50    49 1
   55    51    50 1
   56    52    51 1
   57    53    51 1
   58    54    53 1
   59    55    54 1
   60    56    55 1
   61    57    56 1
   62    58    56 1
   63    59    58 1
   64    60    59 1
   65    61    60 1
   66    62    61 1
   67    63    61 1
   68    64    27 1
   69    64    46 1
   70    65     5 1
   71    65    10 1
   72    65    64 1
   73    65    14 1
   74    66    23 1
   75    67    23 1
   76    68    23 1
   77    69    22 1
   78    70    22 1
   79    71    22 1
   80    72    21 1
   81    73    21 1
   82    74    21 1
   83    75    20 1
   84    76    20 1
   85    77    20 1
   86    78    15 1
   87    79    15 1
   88    80    15 1
   89    81     8 1
   90    82     8 1
   91    83     8 1
   92    84     7 1
   93    85     7 1
   94    86     6 1
   95    87     6 1
   96    88     3 1
   97    89     3 1
   98    90     1 1
   99    91     1 1
  100    92    63 1
  101    93    63 1
  102    94    63 1
  103    95    62 1
  104    96    62 1
  105    97    62 1
  106    98    60 1
  107    99    60 1
  108   100    59 1
  109   101    59 1
  110   102    58 1
  111   103    58 1
  112   104    57 1
  113   105    57 1
  114   106    57 1
  115   107    55 1
  116   108    55 1
  117   109    54 1
  118   110    54 1
  119   111    53 1
  120   112    53 1
  121   113    19 1
  122   114    18 1
  123   115    17 1
  124   116     9 1
  125   117     2 1
  126   118    52 1
  127   119    52 1
  128   120    52 1
  129   121    51 1
  130   122    50 1
  131   123    50 1
  132   124    49 1
  133   125    49 1
  134   126    48 1
  135   127    48 1
  136   128    43 1
  137   129    43 1
  138   130    43 1
  139   131    39 1
  140   132    32 1
  141   133    31 1
  142   134    61 1
  143   135    56 1
  144   136    24 1
  145   137    24 1
  146   139   138 1
  147   140   139 1
  148   141   140 1
  149   142   140 1
  150   143   142 1
  151   144   138 1
  152   144   143 1
  153   145   144 1
  154   146   145 1
  155   147   146 1
  156   148   147 1
  157   149   148 1
  158   150   149 1
  159   151   150 1
  160   152   151 1
  161   153   152 1
  162   154   138 1
  163   155   138 1
  164   156   143 1
  165   157   147 1
  166   158   151 1
  167   160   159 1
  168   161   160 1
  169   162   161 1
  170   163   161 1
  171   164   163 1
  172   165   159 1
  173   165   164 1
  174   166   165 1
  175   167   166 1
  176   168   167 1
  177   169   168 1
  178   170   169 1
  179   171   170 1
  180   172   171 1
  181   173   172 1
  182   174   153 1
  183   174   173 1
  184   175   159 1
  185   176   159 1
  186   177   164 1
  187   178   168 1
  188   179   172 1
  189   180   179 1
  190   181   179 1
  191   182   179 1
  192   183   178 1
  193   184   178 1
  194   185   178 1
  195   186   177 1
  196   187   177 1
  197   188   177 1
  198   189   176 1
  199   190   176 1
  200   191   176 1
  201   192   175 1
  202   193   175 1
  203   194   175 1
  204   195   160 1
  205   196   160 1
  206   197   158 1
  207   198   158 1
  208   199   158 1
  209   200   157 1
  210   201   157 1
  211   202   157 1
  212   203   156 1
  213   204   156 1
  214   205   156 1
  215   206   155 1
  216   207   155 1
  217   208   155 1
  218   209   154 1
  219   210   154 1
  220   211   154 1
  221   212   141 1
  222   213   146 1
  223   214   145 1
  224   215   142 1
  225   216   142 1
  226   217   174 1
  227   218   173 1
  228   219   171 1
  229   220   170 1
  230   221   169 1
  231   222   140 1
  232   223   167 1
  233   224   166 1
  234   225   165 1
  235   226   163 1
  236   227   161 1
  237   228   139 1
  238   229   139 1
  239   230   153 1
  240   231   152 1
  241   232   150 1
  242   233   149 1
  243   234   148 1
  244   235   162 1
  245   65    153 1
  246   65    174 1
@<TRIPOS>SUBSTRUCTURE
      1 CLA               1 ****               0 ****  **** 
      2 LUT             138 ****               0 ****  **** 
