@<TRIPOS>MOLECULE
Cpptraj generated mol2 file.
  235   246     2     0     0
SMALL
USER_CHARGES


@<TRIPOS>ATOM
      1 CAA        78.8361   58.5291   35.0881 a2         1 CLA     -0.055900
      2 CAB        77.9738   61.7980   44.1541 c8         1 CLA     -0.148500
      3 CAC        71.4841   57.6305   42.9860 a2         1 CLA     -0.012600
      4 CAD        74.6085   55.4885   35.8070 ck         1 CLA      0.398800
      5 NA         77.4148   58.8371   38.2361 ns         1 CLA     -0.225500
      6 CBA        80.1542   58.4618   34.2532 a2         1 CLA     -0.135000
      7 CBB        79.1168   61.8564   44.8669 c0         1 CLA     -0.395200
      8 CBC        71.9275   56.1661   43.0395 a3         1 CLA     -0.037700
      9 CBD        76.0633   56.1807   35.6134 a1         1 CLA     -0.053900
     10 NB         77.1826   60.1979   40.9099 nm         1 CLA     -0.295700
     11 OBD        74.0606   54.6553   35.0896 o2         1 CLA     -0.494600
     12 CGA        80.7311   57.0232   33.9671 c4         1 CLA      0.827000
     13 CGD        77.1315   55.1331   35.5225 c4         1 CLA      0.655300
     14 ND         74.6544   57.7913   38.6428 nm         1 CLA     -0.291600
     15 CED        78.0344   53.3738   36.7116 a3         1 CLA      0.005400
     16 CHA        76.2762   57.2263   36.7980 cs         1 CLA     -0.123800
     17 CHB        79.1202   60.2081   39.5108 aa         1 CLA     -0.291900
     18 CHC        75.6216   60.4900   42.8943 aa         1 CLA     -0.090400
     19 CHD        72.6653   57.6814   40.0913 aa         1 CLA     -0.052000
     20 CMA        80.8692   57.9990   38.1760 a3         1 CLA     -0.230700
     21 CMB        80.3063   62.0445   41.6549 a3         1 CLA     -0.180800
     22 CMC        73.3720   59.6556   44.8361 a3         1 CLA     -0.134000
     23 CMD        71.6469   55.6518   37.9285 a3         1 CLA     -0.141100
     24 C1         81.8760   55.2964   35.0276 a2         1 CLA      0.023000
     25 C1A        77.4008   57.9540   37.1776 ac         1 CLA     -0.015100
     26 C1B        78.4435   60.5425   40.7062 cr         1 CLA      0.054700
     27 C1C        74.5551   59.7550   42.4701 cn         1 CLA     -0.005600
     28 C1D        73.3982   57.2314   38.9778 ap         1 CLA     -0.047300
     29 O1A        80.3758   56.2262   33.0733 o2         1 CLA     -0.610800
     30 O1D        77.9334   54.9536   34.5953 o2         1 CLA     -0.558200
     31 C2         82.5319   55.0819   36.2808 c8         1 CLA     -0.325100
     32 C2A        78.7772   57.9223   36.4990 a1         1 CLA      0.098600
     33 C2B        78.9787   61.3539   41.7538 cb         1 CLA      0.088500
     34 C2C        73.4469   59.3262   43.3024 cb         1 CLA      0.053700
     35 C2D        72.9564   56.3179   37.9340 cb         1 CLA      0.058900
     36 O2A        81.5900   56.7288   34.9285 o1         1 CLA     -0.437200
     37 O2D        77.0075   54.3594   36.6324 o1         1 CLA     -0.357600
     38 C3         83.2571   54.0215   36.5943 c5         1 CLA      0.031200
     39 C3A        79.7145   58.7752   37.4800 a1         1 CLA      0.166800
     40 C3B        78.0033   61.3265   42.7256 cb         1 CLA      0.035000
     41 C3C        72.5546   58.5655   42.4761 cb         1 CLA     -0.089900
     42 C3D        74.0943   56.1776   37.0509 cb         1 CLA     -0.035900
     43 C4         82.6924   52.6830   37.1352 a3         1 CLA     -0.053300
     44 C4A        78.6503   59.3537   38.4365 ac         1 CLA      0.001800
     45 C4B        76.8292   60.6584   42.2428 cn         1 CLA     -0.020900
     46 C4C        73.1667   58.4792   41.1926 cr         1 CLA     -0.044400
     47 C4D        75.0635   57.1100   37.5657 c6         1 CLA     -0.046000
     48 C5         84.7979   54.0245   36.4221 a2         1 CLA     -0.070400
     49 C6         85.4718   55.4324   36.6774 a2         1 CLA      0.043900
     50 C7         85.3232   55.7419   38.1609 a2         1 CLA     -0.150000
     51 C8         86.4400   56.6106   38.7474 a1         1 CLA      0.064200
     52 C9         87.7890   55.8255   38.7524 a3         1 CLA     -0.259300
     53 C10        86.1046   57.2657   40.1415 a2         1 CLA     -0.071900
     54 C11        84.7314   57.8154   40.3421 a2         1 CLA      0.014500
     55 C12        84.6968   58.7300   41.5006 a2         1 CLA     -0.112100
     56 C13        85.2174   58.2223   42.9041 a1         1 CLA      0.089200
     57 C14        84.2978   57.1500   43.4822 a3         1 CLA     -0.239100
     58 C15        85.5396   59.4791   43.7814 a2         1 CLA     -0.102200
     59 C16        84.3264   60.2592   44.3139 a2         1 CLA      0.023900
     60 C17        84.6339   60.8182   45.7217 a2         1 CLA     -0.105700
     61 C18        83.4863   61.7742   46.2379 a1         1 CLA      0.206800
     62 C19        82.1392   61.1307   46.7644 a3         1 CLA     -0.280100
     63 C20        84.1442   62.7086   47.2730 a3         1 CLA     -0.280100
     64 NC         74.4503   59.0905   41.2247 nx         1 CLA     -0.309200
     65 MG         75.8368   59.0930   39.6820 mg         1 CLA      0.895000
     66 HMD3       71.7756   54.8816   38.7049 dc         1 CLA      0.064300
     67 HMD2       70.7158   56.1313   37.9334 dc         1 CLA      0.064300
     68 HMD1       71.6987   55.1256   36.9960 dc         1 CLA      0.064300
     69 HMC3       74.3282   59.6523   45.3118 dc         1 CLA      0.052100
     70 HMC2       73.0031   60.7120   44.9948 dc         1 CLA      0.052100
     71 HMC1       72.7173   58.9514   45.3971 dc         1 CLA      0.052100
     72 HMB3       81.1587   61.3696   41.7700 dc         1 CLA      0.063600
     73 HMB2       80.3120   62.5479   40.6800 dc         1 CLA      0.063600
     74 HMB1       80.3673   62.7973   42.4700 dc         1 CLA      0.063600
     75 HMA3       81.4537   58.4453   38.9865 dc         1 CLA      0.058300
     76 HMA2       80.5008   57.0415   38.4848 dc         1 CLA      0.058300
     77 HMA1       81.6425   57.8546   37.4228 dc         1 CLA      0.058300
     78 HED3       78.0869   53.0013   37.7275 dc         1 CLA      0.079300
     79 HED2       77.7203   52.6112   35.9709 dc         1 CLA      0.079300
     80 HED1       79.0099   53.6549   36.3260 dc         1 CLA      0.079300
     81 HBC3       72.5399   56.0895   43.9806 dc         1 CLA      0.016300
     82 HBC2       71.0525   55.5443   43.0661 dc         1 CLA      0.016300
     83 HBC1       72.4299   55.9093   42.0928 dc         1 CLA      0.016300
     84 HBB2       79.1050   62.1936   45.9047 da         1 CLA      0.183000
     85 HBB1       80.0975   61.6421   44.3371 da         1 CLA      0.183000
     86 HBA2       79.9420   58.9104   33.3082 dc         1 CLA      0.029400
     87 HBA1       80.9289   58.8712   34.8098 dc         1 CLA      0.029400
     88 HAC2       71.1811   57.9127   43.9887 dc         1 CLA      0.029300
     89 HAC1       70.6438   57.7201   42.3282 dc         1 CLA      0.029300
     90 HAA2       78.1216   57.9646   34.4807 dc         1 CLA      0.028700
     91 HAA1       78.4373   59.5896   35.1075 dc         1 CLA      0.028700
     92 H203       83.3294   63.1910   47.7508 dc         1 CLA      0.065600
     93 H202       84.7494   62.1700   47.9736 dc         1 CLA      0.065600
     94 H201       84.7370   63.5647   46.7630 dc         1 CLA      0.065600
     95 H193       81.2903   61.7818   47.1167 dc         1 CLA      0.065600
     96 H192       81.7069   60.4270   46.0196 dc         1 CLA      0.065600
     97 H191       82.4209   60.5239   47.6464 dc         1 CLA      0.065600
     98 H172       84.7204   59.9533   46.3965 dc         1 CLA      0.027600
     99 H171       85.6167   61.3013   45.6543 dc         1 CLA      0.027600
    100 H162       84.1083   61.0249   43.5293 dc         1 CLA      0.002900
    101 H161       83.4374   59.5969   44.3184 dc         1 CLA      0.002900
    102 H152       86.2986   59.2877   44.5239 dc         1 CLA      0.029100
    103 H151       85.9703   60.2387   43.1464 dc         1 CLA      0.029100
    104 H143       84.4140   56.2832   42.7937 dc         1 CLA      0.063600
    105 H142       84.5835   56.8240   44.5092 dc         1 CLA      0.063600
    106 H141       83.3114   57.6142   43.4614 dc         1 CLA      0.063600
    107 H122       85.3350   59.5646   41.3288 dc         1 CLA      0.032500
    108 H121       83.7010   59.0839   41.6088 dc         1 CLA      0.032500
    109 H112       84.4111   58.5084   39.5632 dc         1 CLA      0.006600
    110 H111       84.0075   57.0326   40.3458 dc         1 CLA      0.006600
    111 H102       86.3152   56.5875   40.9286 dc         1 CLA      0.024100
    112 H101       86.7826   58.0952   40.2775 dc         1 CLA      0.024100
    113 HHD        71.6041   57.3643   40.1048 da         1 CLA      0.174300
    114 HHC        75.6304   60.8964   43.9257 da         1 CLA      0.136800
    115 HHB        80.1403   60.6401   39.4126 da         1 CLA      0.138300
    116 HBD        76.1265   56.7192   34.6787 dc         1 CLA      0.107700
    117 HAB        77.1493   62.0354   44.8284 da         1 CLA      0.155200
    118 H93        88.5428   56.3702   39.4074 dc         1 CLA      0.069500
    119 H92        87.6030   54.8852   39.2681 dc         1 CLA      0.069500
    120 H91        88.0930   55.6648   37.7446 dc         1 CLA      0.069500
    121 H8         86.5560   57.3993   37.9501 dc         1 CLA      0.029300
    122 H72        84.3167   56.1881   38.2488 dc         1 CLA      0.044400
    123 H71        85.1408   54.8695   38.7488 dc         1 CLA      0.044400
    124 H62        86.4738   55.5564   36.2293 dc         1 CLA      0.015600
    125 H61        85.0321   56.2211   36.1043 dc         1 CLA      0.015600
    126 H52        85.0967   53.2003   37.0959 dc         1 CLA      0.033200
    127 H51        84.8249   53.8006   35.3757 dc         1 CLA      0.033200
    128 H43        81.5946   52.7218   37.2576 dc         1 CLA      0.037000
    129 H42        83.0551   51.9490   36.4252 dc         1 CLA      0.037000
    130 H41        83.1874   52.5549   38.1114 dc         1 CLA      0.037000
    131 H3A        80.2263   59.5781   37.0321 dc         1 CLA      0.041100
    132 H2A        79.1712   56.8897   36.4366 dc         1 CLA      0.083100
    133 H2         82.3732   55.9179   36.9201 da         1 CLA      0.180900
    134 H18        83.0476   62.3790   45.3947 dc         1 CLA     -0.003900
    135 H13        86.2281   57.7582   42.8095 dc         1 CLA      0.019700
    136 H12        80.9945   54.6430   34.8737 dc         1 CLA      0.120400
    137 H11        82.5973   55.0643   34.2307 dc         1 CLA      0.120400
    138 C1         68.4110   62.0364   50.3063 Z1         2 LUT      0.509236
    139 C2         67.1234   61.9194   51.1115 Z2         2 LUT     -0.434695
    140 C3         66.2453   63.1670   51.1980 Z3         2 LUT      0.437453
    141 O3         66.4670   63.8848   52.4213 S1         2 LUT     -0.547129
    142 C4         66.3267   64.1080   50.0050 Z4         2 LUT     -0.468603
    143 C5         66.9210   63.4111   48.7643 Z5         2 LUT      0.279246
    144 C6         67.9490   62.5283   48.9001 Z6         2 LUT     -0.305473
    145 C7         68.6973   61.9539   47.7724 Z7         2 LUT      0.069402
    146 C8         69.2666   62.5910   46.6579 Z8         2 LUT     -0.191631
    147 C9         69.9179   61.9538   45.5855 Z9         2 LUT      0.196698
    148 C10        70.6246   62.7896   44.7675 Y1         2 LUT     -0.208611
    149 C11        71.5085   62.5265   43.6914 Y2         2 LUT      0.030784
    150 C12        72.4745   63.4046   43.3321 Y3         2 LUT     -0.220316
    151 C13        73.4467   63.3024   42.2383 Y4         2 LUT      0.215937
    152 C14        74.5324   64.1776   42.3391 Y5         2 LUT     -0.185793
    153 C15        75.7071   64.1668   41.5947 Y6         2 LUT     -0.057835
    154 C16        69.2126   60.6999   50.3386 Y7         2 LUT     -0.405615
    155 C17        69.3683   63.1326   50.9342 Y7         2 LUT     -0.405615
    156 C18        66.4455   63.9429   47.4729 Y9         2 LUT     -0.369639
    157 C19        69.6247   60.5145   45.2484 W1         2 LUT     -0.333362
    158 C20        73.0556   62.4845   40.9766 W2         2 LUT     -0.323439
    159 C21        87.0757   65.2642   35.3310 Z1         2 LUT      0.406104
    160 C22        87.7517   64.6911   34.0991 Z2         2 LUT     -0.404965
    161 C23        87.9124   65.6065   32.7866 Z3         2 LUT      0.391255
    162 O23        87.7275   64.6127   31.7422 S1         2 LUT     -0.528210
    163 C24        86.8166   66.6049   32.6023 W6         2 LUT     -0.258361
    164 C25        85.7645   66.6777   33.3630 Z5         2 LUT      0.133546
    165 C26        85.6961   65.7590   34.6570 W8         2 LUT     -0.147008
    166 C27        84.8351   66.4112   35.7538 Z7         2 LUT      0.023843
    167 C28        83.9379   65.7248   36.5437 Z8         2 LUT     -0.216987
    168 C29        83.1137   66.2978   37.6860 Z9         2 LUT      0.206524
    169 C30        82.0788   65.5383   38.1961 Y1         2 LUT     -0.215556
    170 C31        81.1369   65.8013   39.2818 Y2         2 LUT      0.025142
    171 C32        79.9418   65.2612   39.6292 Y3         2 LUT     -0.212209
    172 C33        79.1303   65.5906   40.8179 Y4         2 LUT      0.240937
    173 C34        77.9048   64.9655   40.8927 Y5         2 LUT     -0.218862
    174 C35        76.7562   65.0410   41.7400 Y6         2 LUT     -0.023547
    175 C36        88.0017   66.3697   35.9548 Y7         2 LUT     -0.393485
    176 C37        86.9134   63.9994   36.3432 Y7         2 LUT     -0.393485
    177 C38        84.4970   67.3848   33.0184 Y9         2 LUT     -0.387526
    178 C39        83.5476   67.6574   38.2730 W1         2 LUT     -0.322618
    179 C40        79.6275   66.4997   41.9180 W2         2 LUT     -0.358472
    180 H403       79.8202   67.5075   41.6733 R7         2 LUT      0.097720
    181 H402       78.9571   66.6356   42.7424 R7         2 LUT      0.097720
    182 H401       80.6062   66.1201   42.2941 R7         2 LUT      0.097720
    183 H393       83.3293   68.5151   37.6266 R4         2 LUT      0.082505
    184 H392       83.0839   67.9793   39.2340 R4         2 LUT      0.082505
    185 H391       84.6400   67.5368   38.4833 R4         2 LUT      0.082505
    186 H383       84.6598   67.8480   31.9891 R1         2 LUT      0.104030
    187 H382       83.7262   66.5968   32.8956 R1         2 LUT      0.104030
    188 H381       84.0922   68.1286   33.7917 R1         2 LUT      0.104030
    189 H373       86.2829   64.2741   37.1977 T4         2 LUT      0.089537
    190 H372       86.5663   63.0531   35.9385 T4         2 LUT      0.089537
    191 H371       87.8953   63.7413   36.7768 T4         2 LUT      0.089537
    192 H363       89.0308   65.9218   36.1167 T4         2 LUT      0.089537
    193 H362       88.1894   67.3126   35.4113 T4         2 LUT      0.089537
    194 H361       87.6383   66.5572   36.9809 T4         2 LUT      0.089537
    195 H222       88.7324   64.2655   34.3423 U2         2 LUT      0.127376
    196 H221       87.1810   63.8124   33.6986 U2         2 LUT      0.127376
    197 H203       72.2170   61.8150   41.1421 R7         2 LUT      0.087068
    198 H202       72.7432   63.2219   40.2955 R7         2 LUT      0.087068
    199 H201       73.8994   62.0057   40.5086 R7         2 LUT      0.087068
    200 H193       68.5835   60.3178   45.2993 R4         2 LUT      0.089716
    201 H192       69.8562   60.2821   44.1875 R4         2 LUT      0.089716
    202 H191       70.2132   59.7416   45.8315 R4         2 LUT      0.089716
    203 H183       66.6183   63.3089   46.6239 R1         2 LUT      0.094572
    204 H182       65.4256   64.2470   47.4543 R1         2 LUT      0.094572
    205 H181       66.9371   64.8855   47.2956 R1         2 LUT      0.094572
    206 H173       70.1928   63.2293   50.2705 T4         2 LUT      0.093752
    207 H172       68.9808   64.1460   50.9865 T4         2 LUT      0.093752
    208 H171       69.8474   62.8365   51.8834 T4         2 LUT      0.093752
    209 H163       68.6212   59.9151   49.9380 T4         2 LUT      0.093752
    210 H162       70.1275   60.7707   49.8217 T4         2 LUT      0.093752
    211 H161       69.4880   60.4936   51.3702 T4         2 LUT      0.093752
    212 HO3        66.0324   63.5061   53.1261 Q1         2 LUT      0.300121
    213 H8         69.2275   63.7245   46.6793 U7         2 LUT      0.080784
    214 H7         68.8624   60.8421   47.7268 U6         2 LUT      0.042190
    215 H42        65.3946   64.5333   49.6502 U5         2 LUT      0.145166
    216 H41        66.8881   65.0387   50.3099 U5         2 LUT      0.145166
    217 H35        76.8008   65.7874   42.4819 T3         2 LUT      0.077919
    218 H34        77.7815   64.3235   40.0967 T2         2 LUT      0.073626
    219 H32        79.4689   64.5256   38.9030 T1         2 LUT      0.092510
    220 H31        81.5645   66.5510   39.9697 U9         2 LUT      0.070048
    221 H30        81.8149   64.5472   37.7299 U8         2 LUT      0.085442
    222 H3         65.1492   62.8943   51.1229 U3         2 LUT     -0.031596
    223 H28        83.8116   64.7044   36.1607 U7         2 LUT      0.084728
    224 H27        85.1748   67.3930   36.0189 U6         2 LUT      0.087291
    225 H26        85.2069   64.9688   34.2262 Q6         2 LUT      0.075325
    226 H24        86.8281   67.1789   31.6556 Q5         2 LUT      0.094482
    227 H23        88.8599   66.1912   32.7784 U3         2 LUT     -0.024869
    228 H22        66.5438   61.1610   50.6400 U2         2 LUT      0.127376
    229 H21        67.3587   61.4395   52.1141 U2         2 LUT      0.127376
    230 H15        75.8832   63.2760   41.0094 T3         2 LUT      0.093200
    231 H14        74.5419   64.8734   43.1908 T2         2 LUT      0.068865
    232 H12        72.5156   64.3255   43.9045 T1         2 LUT      0.095507
    233 H11        71.2047   61.5677   43.1873 U9         2 LUT      0.068930
    234 H10        70.7934   63.8482   45.0880 U8         2 LUT      0.083911
    235 H1         88.1203   64.6929   30.8729 Q1         2 LUT      0.297311
@<TRIPOS>BOND
    1     6     1 1
    2     7     2 1
    3     8     3 1
    4     9     4 1
    5    11     4 1
    6    12     6 1
    7    13     9 1
    8    16     9 1
    9    25     5 1
   10    25    16 1
   11    26    10 1
   12    26    17 1
   13    27    18 1
   14    28    14 1
   15    28    19 1
   16    29    12 1
   17    30    13 1
   18    31    24 1
   19    32     1 1
   20    32    25 1
   21    33    21 1
   22    33    26 1
   23    34    22 1
   24    34    27 1
   25    35    23 1
   26    35    28 1
   27    36    12 1
   28    36    24 1
   29    37    13 1
   30    37    15 1
   31    38    31 1
   32    39    20 1
   33    39    32 1
   34    40     2 1
   35    40    33 1
   36    41     3 1
   37    41    34 1
   38    42     4 1
   39    42    35 1
   40    43    38 1
   41    44     5 1
   42    44    17 1
   43    44    39 1
   44    45    10 1
   45    45    18 1
   46    45    40 1
   47    46    19 1
   48    46    41 1
   49    47    14 1
   50    47    16 1
   51    47    42 1
   52    48    38 1
   53    49    48 1
   54    50    49 1
   55    51    50 1
   56    52    51 1
   57    53    51 1
   58    54    53 1
   59    55    54 1
   60    56    55 1
   61    57    56 1
   62    58    56 1
   63    59    58 1
   64    60    59 1
   65    61    60 1
   66    62    61 1
   67    63    61 1
   68    64    27 1
   69    64    46 1
   70    65     5 1
   71    65    10 1
   72    65    64 1
   73    65    14 1
   74    66    23 1
   75    67    23 1
   76    68    23 1
   77    69    22 1
   78    70    22 1
   79    71    22 1
   80    72    21 1
   81    73    21 1
   82    74    21 1
   83    75    20 1
   84    76    20 1
   85    77    20 1
   86    78    15 1
   87    79    15 1
   88    80    15 1
   89    81     8 1
   90    82     8 1
   91    83     8 1
   92    84     7 1
   93    85     7 1
   94    86     6 1
   95    87     6 1
   96    88     3 1
   97    89     3 1
   98    90     1 1
   99    91     1 1
  100    92    63 1
  101    93    63 1
  102    94    63 1
  103    95    62 1
  104    96    62 1
  105    97    62 1
  106    98    60 1
  107    99    60 1
  108   100    59 1
  109   101    59 1
  110   102    58 1
  111   103    58 1
  112   104    57 1
  113   105    57 1
  114   106    57 1
  115   107    55 1
  116   108    55 1
  117   109    54 1
  118   110    54 1
  119   111    53 1
  120   112    53 1
  121   113    19 1
  122   114    18 1
  123   115    17 1
  124   116     9 1
  125   117     2 1
  126   118    52 1
  127   119    52 1
  128   120    52 1
  129   121    51 1
  130   122    50 1
  131   123    50 1
  132   124    49 1
  133   125    49 1
  134   126    48 1
  135   127    48 1
  136   128    43 1
  137   129    43 1
  138   130    43 1
  139   131    39 1
  140   132    32 1
  141   133    31 1
  142   134    61 1
  143   135    56 1
  144   136    24 1
  145   137    24 1
  146   139   138 1
  147   140   139 1
  148   141   140 1
  149   142   140 1
  150   143   142 1
  151   144   138 1
  152   144   143 1
  153   145   144 1
  154   146   145 1
  155   147   146 1
  156   148   147 1
  157   149   148 1
  158   150   149 1
  159   151   150 1
  160   152   151 1
  161   153   152 1
  162   154   138 1
  163   155   138 1
  164   156   143 1
  165   157   147 1
  166   158   151 1
  167   160   159 1
  168   161   160 1
  169   162   161 1
  170   163   161 1
  171   164   163 1
  172   165   159 1
  173   165   164 1
  174   166   165 1
  175   167   166 1
  176   168   167 1
  177   169   168 1
  178   170   169 1
  179   171   170 1
  180   172   171 1
  181   173   172 1
  182   174   153 1
  183   174   173 1
  184   175   159 1
  185   176   159 1
  186   177   164 1
  187   178   168 1
  188   179   172 1
  189   180   179 1
  190   181   179 1
  191   182   179 1
  192   183   178 1
  193   184   178 1
  194   185   178 1
  195   186   177 1
  196   187   177 1
  197   188   177 1
  198   189   176 1
  199   190   176 1
  200   191   176 1
  201   192   175 1
  202   193   175 1
  203   194   175 1
  204   195   160 1
  205   196   160 1
  206   197   158 1
  207   198   158 1
  208   199   158 1
  209   200   157 1
  210   201   157 1
  211   202   157 1
  212   203   156 1
  213   204   156 1
  214   205   156 1
  215   206   155 1
  216   207   155 1
  217   208   155 1
  218   209   154 1
  219   210   154 1
  220   211   154 1
  221   212   141 1
  222   213   146 1
  223   214   145 1
  224   215   142 1
  225   216   142 1
  226   217   174 1
  227   218   173 1
  228   219   171 1
  229   220   170 1
  230   221   169 1
  231   222   140 1
  232   223   167 1
  233   224   166 1
  234   225   165 1
  235   226   163 1
  236   227   161 1
  237   228   139 1
  238   229   139 1
  239   230   153 1
  240   231   152 1
  241   232   150 1
  242   233   149 1
  243   234   148 1
  244   235   162 1
  245   65    153 1
  246   65    174 1
@<TRIPOS>SUBSTRUCTURE
      1 CLA               1 ****               0 ****  **** 
      2 LUT             138 ****               0 ****  **** 
