@<TRIPOS>MOLECULE
Cpptraj generated mol2 file.
  235   246     2     0     0
SMALL
USER_CHARGES


@<TRIPOS>ATOM
      1 CAA        79.6696   57.4723   35.1403 a2         1 CLA     -0.055900
      2 CAB        79.2351   61.6182   43.9641 c8         1 CLA     -0.148500
      3 CAC        72.2774   57.4883   43.3749 a2         1 CLA     -0.012600
      4 CAD        75.3674   55.0265   36.3255 ck         1 CLA      0.398800
      5 NA         78.2064   58.1832   38.5300 ns         1 CLA     -0.225500
      6 CBA        81.0790   57.3384   34.5722 a2         1 CLA     -0.135000
      7 CBB        80.4318   61.7259   44.5838 c0         1 CLA     -0.395200
      8 CBC        72.6710   56.0780   43.8001 a3         1 CLA     -0.037700
      9 CBD        76.8689   55.4607   36.0179 a1         1 CLA     -0.053900
     10 NB         78.0470   59.8295   40.9325 nm         1 CLA     -0.295700
     11 OBD        74.7650   54.2135   35.6804 o2         1 CLA     -0.494600
     12 CGA        81.5225   55.9475   34.1320 c4         1 CLA      0.827000
     13 CGD        77.8670   54.2836   36.0480 c4         1 CLA      0.655300
     14 ND         75.5244   57.3021   38.9900 nm         1 CLA     -0.291600
     15 CED        78.8950   52.6952   37.5135 a3         1 CLA      0.005400
     16 CHA        77.0497   56.5514   37.1228 cs         1 CLA     -0.123800
     17 CHB        79.9298   59.6628   39.4279 aa         1 CLA     -0.291900
     18 CHC        76.7193   60.0924   42.9931 aa         1 CLA     -0.090400
     19 CHD        73.6098   57.3646   40.4537 aa         1 CLA     -0.052000
     20 CMA        81.7813   57.6331   37.9681 a3         1 CLA     -0.230700
     21 CMB        81.2930   61.5192   41.3824 a3         1 CLA     -0.180800
     22 CMC        74.3184   59.5932   44.9768 a3         1 CLA     -0.134000
     23 CMD        72.4440   55.1279   38.4989 a3         1 CLA     -0.141100
     24 C1         82.3767   53.8579   34.7519 a2         1 CLA      0.023000
     25 C1A        78.2277   57.3219   37.4139 ac         1 CLA     -0.015100
     26 C1B        79.2835   60.2082   40.5351 cr         1 CLA      0.054700
     27 C1C        75.5151   59.3549   42.6708 cn         1 CLA     -0.005600
     28 C1D        74.2317   56.8950   39.3115 ap         1 CLA     -0.047300
     29 O1A        81.2328   55.5674   32.9983 o2         1 CLA     -0.610800
     30 O1D        78.3639   53.7262   35.0501 o2         1 CLA     -0.558200
     31 C2         83.1486   53.3834   35.9971 c8         1 CLA     -0.325100
     32 C2A        79.6101   57.1875   36.6451 a1         1 CLA      0.098600
     33 C2B        79.9625   60.9669   41.5384 cb         1 CLA      0.088500
     34 C2C        74.3512   59.1398   43.5015 cb         1 CLA      0.053700
     35 C2D        73.7189   55.9274   38.3073 cb         1 CLA      0.058900
     36 O2A        82.2645   55.2351   35.0314 o1         1 CLA     -0.437200
     37 O2D        78.0800   53.9637   37.3699 o1         1 CLA     -0.357600
     38 C3         84.3288   52.7470   36.0537 c5         1 CLA      0.031200
     39 C3A        80.4528   58.2170   37.4298 a1         1 CLA      0.166800
     40 C3B        79.0628   61.0287   42.6291 cb         1 CLA      0.035000
     41 C3C        73.5111   58.2677   42.8154 cb         1 CLA     -0.089900
     42 C3D        74.8056   55.7930   37.4422 cb         1 CLA     -0.035900
     43 C4         84.4578   51.2120   35.9492 a3         1 CLA     -0.053300
     44 C4A        79.4750   58.7358   38.5181 ac         1 CLA      0.001800
     45 C4B        77.8530   60.3255   42.1980 cn         1 CLA     -0.020900
     46 C4C        74.1461   58.0963   41.4987 cr         1 CLA     -0.044400
     47 C4D        75.9035   56.5694   37.9314 c6         1 CLA     -0.046000
     48 C5         85.5323   53.5606   36.5398 a2         1 CLA     -0.070400
     49 C6         85.4771   53.8053   38.0372 a2         1 CLA      0.043900
     50 C7         86.7126   54.5745   38.6418 a2         1 CLA     -0.150000
     51 C8         86.4536   55.2218   40.0468 a1         1 CLA      0.064200
     52 C9         85.6500   56.5158   39.9409 a3         1 CLA     -0.259300
     53 C10        87.8525   55.4797   40.7511 a2         1 CLA     -0.071900
     54 C11        87.8785   56.0866   42.2192 a2         1 CLA      0.014500
     55 C12        86.8030   55.4356   43.1009 a2         1 CLA     -0.112100
     56 C13        86.8279   55.7881   44.6448 a1         1 CLA      0.089200
     57 C14        86.0403   54.7751   45.5569 a3         1 CLA     -0.239100
     58 C15        86.5734   57.2777   44.9847 a2         1 CLA     -0.102200
     59 C16        85.1087   57.7735   45.0025 a2         1 CLA      0.023900
     60 C17        84.5319   57.9388   46.4298 a2         1 CLA     -0.105700
     61 C18        82.9934   58.1689   46.5625 a1         1 CLA      0.206800
     62 C19        82.4295   58.0412   47.9490 a3         1 CLA     -0.280100
     63 C20        82.4747   59.4900   45.9625 a3         1 CLA     -0.280100
     64 NC         75.2611   58.7667   41.4471 nx         1 CLA     -0.309200
     65 MG         76.7016   58.6618   39.9525 mg         1 CLA      0.895000
     66 HMD3       72.1974   54.8875   39.5843 dc         1 CLA      0.064300
     67 HMD2       71.5840   55.6786   38.0916 dc         1 CLA      0.064300
     68 HMD1       72.5793   54.1412   37.9399 dc         1 CLA      0.064300
     69 HMC3       74.9027   60.3969   45.2688 dc         1 CLA      0.052100
     70 HMC2       73.3082   59.8624   45.2040 dc         1 CLA      0.052100
     71 HMC1       74.5871   58.6867   45.6285 dc         1 CLA      0.052100
     72 HMB3       81.3392   62.3670   42.0363 dc         1 CLA      0.063600
     73 HMB2       81.8667   60.6177   41.5640 dc         1 CLA      0.063600
     74 HMB1       81.3761   61.9064   40.4257 dc         1 CLA      0.063600
     75 HMA3       82.3315   58.4123   38.4749 dc         1 CLA      0.058300
     76 HMA2       81.5078   56.9391   38.7437 dc         1 CLA      0.058300
     77 HMA1       82.3892   57.0875   37.2059 dc         1 CLA      0.058300
     78 HED3       78.9366   52.3834   38.5540 dc         1 CLA      0.079300
     79 HED2       78.6361   51.8592   36.8405 dc         1 CLA      0.079300
     80 HED1       79.9449   52.9624   37.2679 dc         1 CLA      0.079300
     81 HBC3       73.2147   56.0477   44.6981 dc         1 CLA      0.016300
     82 HBC2       71.7641   55.5001   43.9154 dc         1 CLA      0.016300
     83 HBC1       73.3310   55.4444   43.1458 dc         1 CLA      0.016300
     84 HBB2       80.6069   62.2028   45.5703 da         1 CLA      0.183000
     85 HBB1       81.3819   61.3544   44.0830 da         1 CLA      0.183000
     86 HBA2       81.0874   58.0159   33.6487 dc         1 CLA      0.029400
     87 HBA1       81.9350   57.6492   35.2342 dc         1 CLA      0.029400
     88 HAC2       72.0273   58.0043   44.2660 dc         1 CLA      0.029300
     89 HAC1       71.4922   57.4929   42.6974 dc         1 CLA      0.029300
     90 HAA2       79.0212   56.7883   34.7021 dc         1 CLA      0.028700
     91 HAA1       79.1687   58.4986   34.9347 dc         1 CLA      0.028700
     92 H203       82.9651   60.3396   46.3650 dc         1 CLA      0.065600
     93 H202       82.7242   59.5294   44.9081 dc         1 CLA      0.065600
     94 H201       81.4366   59.6452   46.0651 dc         1 CLA      0.065600
     95 H193       82.9636   58.6490   48.7034 dc         1 CLA      0.065600
     96 H192       81.3340   58.3190   47.8845 dc         1 CLA      0.065600
     97 H191       82.5090   57.0447   48.3326 dc         1 CLA      0.065600
     98 H172       84.7681   57.0329   46.9650 dc         1 CLA      0.027600
     99 H171       85.0600   58.7672   46.9239 dc         1 CLA      0.027600
    100 H162       85.0112   58.7332   44.4758 dc         1 CLA      0.002900
    101 H161       84.3722   57.0743   44.4688 dc         1 CLA      0.002900
    102 H152       87.0732   57.4867   45.9331 dc         1 CLA      0.029100
    103 H151       87.1454   57.9312   44.2934 dc         1 CLA      0.029100
    104 H143       85.0051   54.7774   45.5122 dc         1 CLA      0.063600
    105 H142       86.4770   53.7976   45.1875 dc         1 CLA      0.063600
    106 H141       86.3574   54.8891   46.5962 dc         1 CLA      0.063600
    107 H122       85.7541   55.6294   42.8193 dc         1 CLA      0.032500
    108 H121       86.9345   54.3229   43.0759 dc         1 CLA      0.032500
    109 H112       88.8784   56.0146   42.6098 dc         1 CLA      0.006600
    110 H111       87.6261   57.0993   42.1941 dc         1 CLA      0.006600
    111 H102       88.3008   54.4546   40.6490 dc         1 CLA      0.024100
    112 H101       88.3835   56.1185   39.9999 dc         1 CLA      0.024100
    113 HHD        72.6272   57.0681   40.5389 da         1 CLA      0.174300
    114 HHC        76.7130   60.3304   44.0828 da         1 CLA      0.136800
    115 HHB        80.9346   59.9821   39.2523 da         1 CLA      0.138300
    116 HBD        76.9639   55.8508   35.0284 dc         1 CLA      0.107700
    117 HAB        78.3309   61.9255   44.4868 da         1 CLA      0.155200
    118 H93        85.2642   56.9071   40.8910 dc         1 CLA      0.069500
    119 H92        86.3001   57.1883   39.4518 dc         1 CLA      0.069500
    120 H91        84.8023   56.3360   39.3048 dc         1 CLA      0.069500
    121 H8         85.9430   54.5832   40.6733 dc         1 CLA      0.029300
    122 H72        87.5705   53.9414   38.6993 dc         1 CLA      0.044400
    123 H71        87.0442   55.4332   37.9734 dc         1 CLA      0.044400
    124 H62        84.4938   54.1756   38.4035 dc         1 CLA      0.015600
    125 H61        85.5136   52.8116   38.5674 dc         1 CLA      0.015600
    126 H52        86.3900   52.9330   36.2512 dc         1 CLA      0.033200
    127 H51        85.4066   54.5898   36.1157 dc         1 CLA      0.033200
    128 H43        85.0818   50.7933   36.7233 dc         1 CLA      0.037000
    129 H42        83.4577   50.7234   35.9255 dc         1 CLA      0.037000
    130 H41        84.8842   51.0230   35.0006 dc         1 CLA      0.037000
    131 H3A        80.7235   59.1425   36.8485 dc         1 CLA      0.041100
    132 H2A        79.9575   56.1932   36.8683 dc         1 CLA      0.083100
    133 H2         82.6741   53.5768   36.9956 da         1 CLA      0.180900
    134 H18        82.6448   57.2879   45.9788 dc         1 CLA     -0.003900
    135 H13        87.8440   55.5003   44.9710 dc         1 CLA      0.019700
    136 H12        81.3813   53.3255   34.7446 dc         1 CLA      0.120400
    137 H11        83.0304   53.6849   33.9342 dc         1 CLA      0.120400
    138 C1         69.1669   61.2481   50.3088 Z1         2 LUT      0.509236
    139 C2         67.8542   61.1124   51.0956 Z2         2 LUT     -0.434695
    140 C3         67.1508   62.3840   51.4155 Z3         2 LUT      0.437453
    141 O3         67.4651   62.6399   52.7763 S1         2 LUT     -0.547129
    142 C4         67.5095   63.5003   50.4387 Z4         2 LUT     -0.468603
    143 C5         68.0964   63.0740   49.1077 Z5         2 LUT      0.279246
    144 C6         68.9628   62.0498   49.0291 Z6         2 LUT     -0.305473
    145 C7         69.5095   61.4893   47.7593 Z7         2 LUT      0.069402
    146 C8         70.4150   62.1205   46.9794 Z8         2 LUT     -0.191631
    147 C9         71.0836   61.7719   45.6748 Z9         2 LUT      0.196698
    148 C10        72.0715   62.6255   45.1490 Y1         2 LUT     -0.208611
    149 C11        72.9096   62.5049   44.0422 Y2         2 LUT      0.030784
    150 C12        74.0297   63.3331   43.8783 Y3         2 LUT     -0.220316
    151 C13        74.8693   63.1597   42.7267 Y4         2 LUT      0.215937
    152 C14        76.1061   63.7611   42.8011 Y5         2 LUT     -0.185793
    153 C15        77.2551   63.9104   41.8599 Y6         2 LUT     -0.057835
    154 C16        69.6914   59.7902   50.0242 Y7         2 LUT     -0.405615
    155 C17        70.1573   61.9455   51.4077 Y7         2 LUT     -0.405615
    156 C18        67.7000   63.9810   47.9395 Y9         2 LUT     -0.369639
    157 C19        70.5418   60.4882   44.9493 W1         2 LUT     -0.333362
    158 C20        74.4109   62.4876   41.4777 W2         2 LUT     -0.323439
    159 C21        88.6879   64.1855   36.3827 Z1         2 LUT      0.406104
    160 C22        89.1020   63.2454   35.2574 Z2         2 LUT     -0.404965
    161 C23        89.6063   64.0062   33.9494 Z3         2 LUT      0.391255
    162 O23        89.7735   62.9275   33.0159 S1         2 LUT     -0.528210
    163 C24        88.4324   65.0102   33.5591 W6         2 LUT     -0.258361
    164 C25        87.4670   65.3886   34.3778 Z5         2 LUT      0.133546
    165 C26        87.3382   64.8568   35.8723 W8         2 LUT     -0.147008
    166 C27        86.6893   65.7387   36.9123 Z7         2 LUT      0.023843
    167 C28        85.3977   65.4699   37.3699 Z8         2 LUT     -0.216987
    168 C29        84.7877   65.9085   38.6415 Z9         2 LUT      0.206524
    169 C30        83.6381   65.3354   39.0574 Y1         2 LUT     -0.215556
    170 C31        82.9356   65.6163   40.2245 Y2         2 LUT      0.025142
    171 C32        81.6790   65.0880   40.3265 Y3         2 LUT     -0.212209
    172 C33        80.7818   65.2292   41.4738 Y4         2 LUT      0.240937
    173 C34        79.5433   64.6088   41.3989 Y5         2 LUT     -0.218862
    174 C35        78.4578   64.4925   42.3035 Y6         2 LUT     -0.023547
    175 C36        89.7308   65.3147   36.6055 Y7         2 LUT     -0.393485
    176 C37        88.5685   63.4868   37.7355 Y7         2 LUT     -0.393485
    177 C38        86.4402   66.3977   33.8814 Y9         2 LUT     -0.387526
    178 C39        85.5105   67.0761   39.4215 W1         2 LUT     -0.322618
    179 C40        81.1170   66.1545   42.6586 W2         2 LUT     -0.358472
    180 H403       81.8667   65.8554   43.3564 R7         2 LUT      0.097720
    181 H402       81.4576   67.0073   42.1073 R7         2 LUT      0.097720
    182 H401       80.3083   66.5027   43.3026 R7         2 LUT      0.097720
    183 H393       86.2433   66.7823   40.0943 R4         2 LUT      0.082505
    184 H392       86.0802   67.6838   38.6635 R4         2 LUT      0.082505
    185 H391       84.9389   67.8260   39.9013 R4         2 LUT      0.082505
    186 H383       85.4909   65.9158   34.1628 R1         2 LUT      0.104030
    187 H382       86.6395   67.3186   34.3724 R1         2 LUT      0.104030
    188 H381       86.4533   66.5955   32.8076 R1         2 LUT      0.104030
    189 H373       89.5022   62.9837   37.9123 T4         2 LUT      0.089537
    190 H372       88.0775   63.9179   38.6357 T4         2 LUT      0.089537
    191 H371       87.9655   62.5366   37.5600 T4         2 LUT      0.089537
    192 H363       89.4669   66.0094   37.3782 T4         2 LUT      0.089537
    193 H362       90.7219   64.9761   36.9249 T4         2 LUT      0.089537
    194 H361       89.8205   66.0318   35.7790 T4         2 LUT      0.089537
    195 H222       89.9686   62.5998   35.6289 U2         2 LUT      0.127376
    196 H221       88.4019   62.4984   35.0431 U2         2 LUT      0.127376
    197 H203       73.6332   63.0277   40.9737 R7         2 LUT      0.087068
    198 H202       75.2148   62.5510   40.7542 R7         2 LUT      0.087068
    199 H201       73.9759   61.4931   41.5230 R7         2 LUT      0.087068
    200 H193       70.8353   60.3896   43.8863 R4         2 LUT      0.089716
    201 H192       70.8832   59.5443   45.4378 R4         2 LUT      0.089716
    202 H191       69.4401   60.3835   44.8117 R4         2 LUT      0.089716
    203 H183       68.3159   64.8435   47.8494 R1         2 LUT      0.094572
    204 H182       67.9278   63.4134   47.0577 R1         2 LUT      0.094572
    205 H181       66.6067   64.1928   48.0622 R1         2 LUT      0.094572
    206 H173       70.2055   63.0255   51.3654 T4         2 LUT      0.093752
    207 H172       69.9540   61.6290   52.4075 T4         2 LUT      0.093752
    208 H171       71.1664   61.6317   51.1534 T4         2 LUT      0.093752
    209 H163       70.7511   59.8607   49.7270 T4         2 LUT      0.093752
    210 H162       69.7000   59.1239   50.9482 T4         2 LUT      0.093752
    211 H161       69.1810   59.3435   49.1574 T4         2 LUT      0.093752
    212 HO3        66.9717   63.4198   53.0825 Q1         2 LUT      0.300121
    213 H8         70.7750   63.0726   47.4117 U7         2 LUT      0.080784
    214 H7         69.0618   60.5716   47.4299 U6         2 LUT      0.042190
    215 H42        66.6329   64.0771   50.2283 U5         2 LUT      0.145166
    216 H41        68.0002   64.3227   50.8611 U5         2 LUT      0.145166
    217 H35        78.5061   64.9172   43.3316 T3         2 LUT      0.077919
    218 H34        79.3005   64.0443   40.4917 T2         2 LUT      0.073626
    219 H32        81.2769   64.5422   39.4379 T1         2 LUT      0.092510
    220 H31        83.4102   66.1544   41.0086 U9         2 LUT      0.070048
    221 H30        83.2779   64.5971   38.3451 U8         2 LUT      0.085442
    222 H3         66.1525   62.1034   51.2003 U3         2 LUT     -0.031596
    223 H28        84.8355   64.8374   36.6924 U7         2 LUT      0.084728
    224 H27        87.3758   66.4632   37.4545 U6         2 LUT      0.087291
    225 H26        86.6852   64.0029   35.6544 Q6         2 LUT      0.075325
    226 H24        88.4026   65.4564   32.5809 Q5         2 LUT      0.094482
    227 H23        90.4825   64.5858   34.1806 U3         2 LUT     -0.024869
    228 H22        67.1816   60.5957   50.4366 U2         2 LUT      0.127376
    229 H21        67.8344   60.4981   52.0220 U2         2 LUT      0.127376
    230 H15        77.2107   63.4633   40.8912 T3         2 LUT      0.093200
    231 H14        76.1735   64.3143   43.6813 T2         2 LUT      0.068865
    232 H12        74.3980   64.0038   44.6665 T1         2 LUT      0.095507
    233 H11        72.6542   61.7345   43.2958 U9         2 LUT      0.068930
    234 H10        72.3579   63.4716   45.8001 U8         2 LUT      0.083911
    235 H1         89.8266   63.2970   32.1402 Q1         2 LUT      0.297311
@<TRIPOS>BOND
    1     6     1 1
    2     7     2 1
    3     8     3 1
    4     9     4 1
    5    11     4 1
    6    12     6 1
    7    13     9 1
    8    16     9 1
    9    25     5 1
   10    25    16 1
   11    26    10 1
   12    26    17 1
   13    27    18 1
   14    28    14 1
   15    28    19 1
   16    29    12 1
   17    30    13 1
   18    31    24 1
   19    32     1 1
   20    32    25 1
   21    33    21 1
   22    33    26 1
   23    34    22 1
   24    34    27 1
   25    35    23 1
   26    35    28 1
   27    36    12 1
   28    36    24 1
   29    37    13 1
   30    37    15 1
   31    38    31 1
   32    39    20 1
   33    39    32 1
   34    40     2 1
   35    40    33 1
   36    41     3 1
   37    41    34 1
   38    42     4 1
   39    42    35 1
   40    43    38 1
   41    44     5 1
   42    44    17 1
   43    44    39 1
   44    45    10 1
   45    45    18 1
   46    45    40 1
   47    46    19 1
   48    46    41 1
   49    47    14 1
   50    47    16 1
   51    47    42 1
   52    48    38 1
   53    49    48 1
   54    50    49 1
   55    51    50 1
   56    52    51 1
   57    53    51 1
   58    54    53 1
   59    55    54 1
   60    56    55 1
   61    57    56 1
   62    58    56 1
   63    59    58 1
   64    60    59 1
   65    61    60 1
   66    62    61 1
   67    63    61 1
   68    64    27 1
   69    64    46 1
   70    65     5 1
   71    65    10 1
   72    65    64 1
   73    65    14 1
   74    66    23 1
   75    67    23 1
   76    68    23 1
   77    69    22 1
   78    70    22 1
   79    71    22 1
   80    72    21 1
   81    73    21 1
   82    74    21 1
   83    75    20 1
   84    76    20 1
   85    77    20 1
   86    78    15 1
   87    79    15 1
   88    80    15 1
   89    81     8 1
   90    82     8 1
   91    83     8 1
   92    84     7 1
   93    85     7 1
   94    86     6 1
   95    87     6 1
   96    88     3 1
   97    89     3 1
   98    90     1 1
   99    91     1 1
  100    92    63 1
  101    93    63 1
  102    94    63 1
  103    95    62 1
  104    96    62 1
  105    97    62 1
  106    98    60 1
  107    99    60 1
  108   100    59 1
  109   101    59 1
  110   102    58 1
  111   103    58 1
  112   104    57 1
  113   105    57 1
  114   106    57 1
  115   107    55 1
  116   108    55 1
  117   109    54 1
  118   110    54 1
  119   111    53 1
  120   112    53 1
  121   113    19 1
  122   114    18 1
  123   115    17 1
  124   116     9 1
  125   117     2 1
  126   118    52 1
  127   119    52 1
  128   120    52 1
  129   121    51 1
  130   122    50 1
  131   123    50 1
  132   124    49 1
  133   125    49 1
  134   126    48 1
  135   127    48 1
  136   128    43 1
  137   129    43 1
  138   130    43 1
  139   131    39 1
  140   132    32 1
  141   133    31 1
  142   134    61 1
  143   135    56 1
  144   136    24 1
  145   137    24 1
  146   139   138 1
  147   140   139 1
  148   141   140 1
  149   142   140 1
  150   143   142 1
  151   144   138 1
  152   144   143 1
  153   145   144 1
  154   146   145 1
  155   147   146 1
  156   148   147 1
  157   149   148 1
  158   150   149 1
  159   151   150 1
  160   152   151 1
  161   153   152 1
  162   154   138 1
  163   155   138 1
  164   156   143 1
  165   157   147 1
  166   158   151 1
  167   160   159 1
  168   161   160 1
  169   162   161 1
  170   163   161 1
  171   164   163 1
  172   165   159 1
  173   165   164 1
  174   166   165 1
  175   167   166 1
  176   168   167 1
  177   169   168 1
  178   170   169 1
  179   171   170 1
  180   172   171 1
  181   173   172 1
  182   174   153 1
  183   174   173 1
  184   175   159 1
  185   176   159 1
  186   177   164 1
  187   178   168 1
  188   179   172 1
  189   180   179 1
  190   181   179 1
  191   182   179 1
  192   183   178 1
  193   184   178 1
  194   185   178 1
  195   186   177 1
  196   187   177 1
  197   188   177 1
  198   189   176 1
  199   190   176 1
  200   191   176 1
  201   192   175 1
  202   193   175 1
  203   194   175 1
  204   195   160 1
  205   196   160 1
  206   197   158 1
  207   198   158 1
  208   199   158 1
  209   200   157 1
  210   201   157 1
  211   202   157 1
  212   203   156 1
  213   204   156 1
  214   205   156 1
  215   206   155 1
  216   207   155 1
  217   208   155 1
  218   209   154 1
  219   210   154 1
  220   211   154 1
  221   212   141 1
  222   213   146 1
  223   214   145 1
  224   215   142 1
  225   216   142 1
  226   217   174 1
  227   218   173 1
  228   219   171 1
  229   220   170 1
  230   221   169 1
  231   222   140 1
  232   223   167 1
  233   224   166 1
  234   225   165 1
  235   226   163 1
  236   227   161 1
  237   228   139 1
  238   229   139 1
  239   230   153 1
  240   231   152 1
  241   232   150 1
  242   233   149 1
  243   234   148 1
  244   235   162 1
  245   65    153 1
  246   65    174 1
@<TRIPOS>SUBSTRUCTURE
      1 CLA               1 ****               0 ****  **** 
      2 LUT             138 ****               0 ****  **** 
