@<TRIPOS>MOLECULE
Cpptraj generated mol2 file.
  235   246     2     0     0
SMALL
USER_CHARGES


@<TRIPOS>ATOM
      1 CAA        78.6607   59.1115   33.8502 a2         1 CLA     -0.055900
      2 CAB        78.2845   62.4988   42.9726 c8         1 CLA     -0.148500
      3 CAC        71.3770   58.2766   41.9826 a2         1 CLA     -0.012600
      4 CAD        74.4236   56.5203   34.6995 ck         1 CLA      0.398800
      5 NA         77.3804   59.2764   37.2139 ns         1 CLA     -0.225500
      6 CBA        79.8972   59.1371   33.0388 a2         1 CLA     -0.135000
      7 CBB        79.3493   62.2499   43.7199 c0         1 CLA     -0.395200
      8 CBC        71.6116   56.6643   41.8586 a3         1 CLA     -0.037700
      9 CBD        75.8907   56.9837   34.4703 a1         1 CLA     -0.053900
     10 NB         77.1378   60.8137   39.7896 nm         1 CLA     -0.295700
     11 OBD        73.8372   55.8612   33.8702 o2         1 CLA     -0.494600
     12 CGA        80.3716   57.7810   32.5614 c4         1 CLA      0.827000
     13 CGD        76.8000   55.8576   34.0514 c4         1 CLA      0.655300
     14 ND         74.6900   58.3790   37.6945 nm         1 CLA     -0.291600
     15 CED        77.4871   53.6075   34.3819 a3         1 CLA      0.005400
     16 CHA        76.1722   57.8536   35.7192 cs         1 CLA     -0.123800
     17 CHB        79.0817   60.5790   38.3113 aa         1 CLA     -0.291900
     18 CHC        75.7455   60.9491   41.7502 aa         1 CLA     -0.090400
     19 CHD        72.7160   58.2177   39.0876 aa         1 CLA     -0.052000
     20 CMA        80.8044   58.3948   36.7614 a3         1 CLA     -0.230700
     21 CMB        80.4112   62.4858   40.4859 a3         1 CLA     -0.180800
     22 CMC        73.3482   60.1353   43.6708 a3         1 CLA     -0.134000
     23 CMD        71.4676   56.6650   36.7934 a3         1 CLA     -0.141100
     24 C1         80.9716   55.5594   33.1937 a2         1 CLA      0.023000
     25 C1A        77.3086   58.5150   36.0657 ac         1 CLA     -0.015100
     26 C1B        78.4028   61.0820   39.4524 cr         1 CLA      0.054700
     27 C1C        74.5943   60.2125   41.4178 cn         1 CLA     -0.005600
     28 C1D        73.3253   58.0191   37.8690 ap         1 CLA     -0.047300
     29 O1A        80.3886   57.4105   31.3855 o2         1 CLA     -0.610800
     30 O1D        77.5063   55.9031   33.0472 o2         1 CLA     -0.558200
     31 C2         81.7020   54.7948   34.2770 c8         1 CLA     -0.325100
     32 C2A        78.6727   58.5072   35.2868 a1         1 CLA      0.098600
     33 C2B        79.0276   61.8676   40.5384 cb         1 CLA      0.088500
     34 C2C        73.4514   59.8126   42.2560 cb         1 CLA      0.053700
     35 C2D        72.8052   57.2034   36.8385 cb         1 CLA      0.058900
     36 O2A        80.7724   56.9648   33.5795 o1         1 CLA     -0.437200
     37 O2D        76.7025   54.7229   34.8878 o1         1 CLA     -0.357600
     38 C3         82.7426   53.9960   34.1277 c5         1 CLA      0.031200
     39 C3A        79.6665   59.2598   36.2336 a1         1 CLA      0.166800
     40 C3B        78.1537   61.9511   41.5840 cb         1 CLA      0.035000
     41 C3C        72.6107   59.0283   41.5348 cb         1 CLA     -0.089900
     42 C3D        73.9041   57.1371   35.9274 cb         1 CLA     -0.035900
     43 C4         82.5925   52.5514   34.3804 a3         1 CLA     -0.053300
     44 C4A        78.6509   59.6968   37.3506 ac         1 CLA      0.001800
     45 C4B        76.9452   61.2215   41.1182 cn         1 CLA     -0.020900
     46 C4C        73.1952   58.9742   40.1958 cr         1 CLA     -0.044400
     47 C4D        74.9808   57.8924   36.4599 c6         1 CLA     -0.046000
     48 C5         84.0953   54.4940   34.0462 a2         1 CLA     -0.070400
     49 C6         84.4429   55.8843   34.6539 a2         1 CLA      0.043900
     50 C7         84.3532   55.7811   36.1781 a2         1 CLA     -0.150000
     51 C8         84.5477   57.1375   36.9214 a1         1 CLA      0.064200
     52 C9         85.6929   58.0094   36.4113 a3         1 CLA     -0.259300
     53 C10        84.5281   56.9212   38.4723 a2         1 CLA     -0.071900
     54 C11        83.1388   56.5447   39.2057 a2         1 CLA      0.014500
     55 C12        83.3232   56.8524   40.6722 a2         1 CLA     -0.112100
     56 C13        82.0292   56.7482   41.5017 a1         1 CLA      0.089200
     57 C14        81.0365   57.8678   41.0771 a3         1 CLA     -0.239100
     58 C15        82.3316   56.6553   43.0557 a2         1 CLA     -0.102200
     59 C16        82.9869   57.9888   43.6554 a2         1 CLA      0.023900
     60 C17        83.2900   57.7762   45.1844 a2         1 CLA     -0.105700
     61 C18        84.3173   58.8442   45.7815 a1         1 CLA      0.206800
     62 C19        83.7123   60.0548   46.5548 a3         1 CLA     -0.280100
     63 C20        85.3091   58.2371   46.8405 a3         1 CLA     -0.280100
     64 NC         74.3923   59.7034   40.1439 nx         1 CLA     -0.309200
     65 MG         75.8696   59.6915   38.6942 mg         1 CLA      0.895000
     66 HMD3       71.3059   56.1146   37.7200 dc         1 CLA      0.064300
     67 HMD2       70.6700   57.3751   36.8174 dc         1 CLA      0.064300
     68 HMD1       71.1840   56.0494   35.9493 dc         1 CLA      0.064300
     69 HMC3       73.4549   59.2534   44.3289 dc         1 CLA      0.052100
     70 HMC2       74.0205   60.8123   44.1147 dc         1 CLA      0.052100
     71 HMC1       72.3812   60.6554   43.8562 dc         1 CLA      0.052100
     72 HMB3       80.5701   62.9268   39.4776 dc         1 CLA      0.063600
     73 HMB2       80.4142   63.1941   41.2898 dc         1 CLA      0.063600
     74 HMB1       81.1918   61.7422   40.6504 dc         1 CLA      0.063600
     75 HMA3       80.3750   57.5515   37.3109 dc         1 CLA      0.058300
     76 HMA2       81.2762   58.0164   35.8601 dc         1 CLA      0.058300
     77 HMA1       81.4403   58.9505   37.4509 dc         1 CLA      0.058300
     78 HED3       78.5510   53.8916   34.5001 dc         1 CLA      0.079300
     79 HED2       77.2509   52.6690   34.9410 dc         1 CLA      0.079300
     80 HED1       77.2156   53.5759   33.3882 dc         1 CLA      0.079300
     81 HBC3       72.5761   56.4565   42.2703 dc         1 CLA      0.016300
     82 HBC2       70.9128   56.0958   42.4725 dc         1 CLA      0.016300
     83 HBC1       71.4051   56.2021   40.8579 dc         1 CLA      0.016300
     84 HBB2       79.4837   62.5993   44.7773 da         1 CLA      0.183000
     85 HBB1       80.2282   61.7072   43.2998 da         1 CLA      0.183000
     86 HBA2       79.7826   59.8315   32.2035 dc         1 CLA      0.029400
     87 HBA1       80.7105   59.5698   33.6526 dc         1 CLA      0.029400
     88 HAC2       70.9927   58.6832   42.9710 dc         1 CLA      0.029300
     89 HAC1       70.5934   58.4988   41.2429 dc         1 CLA      0.029300
     90 HAA2       78.0953   58.4146   33.3321 dc         1 CLA      0.028700
     91 HAA1       78.1099   60.0735   33.8144 dc         1 CLA      0.028700
     92 H203       86.1850   58.9347   47.0818 dc         1 CLA      0.065600
     93 H202       84.6766   57.8785   47.6607 dc         1 CLA      0.065600
     94 H201       85.7868   57.4485   46.2656 dc         1 CLA      0.065600
     95 H193       84.4660   60.8592   46.8203 dc         1 CLA      0.065600
     96 H192       82.9579   60.5430   45.9191 dc         1 CLA      0.065600
     97 H191       83.1397   59.5777   47.4263 dc         1 CLA      0.065600
     98 H172       82.2940   57.7778   45.7137 dc         1 CLA      0.027600
     99 H171       83.8322   56.8318   45.2190 dc         1 CLA      0.027600
    100 H162       83.9950   58.1935   43.2213 dc         1 CLA      0.002900
    101 H161       82.4071   58.8605   43.4506 dc         1 CLA      0.002900
    102 H152       81.4170   56.4267   43.4961 dc         1 CLA      0.029100
    103 H151       82.9641   55.8142   43.2767 dc         1 CLA      0.029100
    104 H143       81.5971   58.7362   41.3863 dc         1 CLA      0.063600
    105 H142       80.8109   57.9762   40.0159 dc         1 CLA      0.063600
    106 H141       80.1401   57.6481   41.6169 dc         1 CLA      0.063600
    107 H122       84.0239   56.1463   41.1383 dc         1 CLA      0.032500
    108 H121       83.7860   57.7953   40.8101 dc         1 CLA      0.032500
    109 H112       82.3956   57.1173   38.6677 dc         1 CLA      0.006600
    110 H111       82.8511   55.5458   39.0204 dc         1 CLA      0.006600
    111 H102       85.3805   56.2049   38.7656 dc         1 CLA      0.024100
    112 H101       84.9102   57.8943   38.8749 dc         1 CLA      0.024100
    113 HHD        71.6936   57.8627   39.1703 da         1 CLA      0.174300
    114 HHC        75.8086   61.3624   42.7330 da         1 CLA      0.136800
    115 HHB        80.1340   60.7342   38.4613 da         1 CLA      0.138300
    116 HBD        75.9459   57.5048   33.5278 dc         1 CLA      0.107700
    117 HAB        77.4545   63.1298   43.4250 da         1 CLA      0.155200
    118 H93        85.7944   58.9501   37.0219 dc         1 CLA      0.069500
    119 H92        86.6552   57.5347   36.4237 dc         1 CLA      0.069500
    120 H91        85.5453   58.2923   35.3402 dc         1 CLA      0.069500
    121 H8         83.7143   57.7989   36.6281 dc         1 CLA      0.029300
    122 H72        83.4493   55.4119   36.6017 dc         1 CLA      0.044400
    123 H71        85.1756   55.0170   36.2893 dc         1 CLA      0.044400
    124 H62        85.5342   56.0847   34.3653 dc         1 CLA      0.015600
    125 H61        83.7424   56.6679   34.3314 dc         1 CLA      0.015600
    126 H52        84.8715   53.8211   34.3708 dc         1 CLA      0.033200
    127 H51        84.1846   54.5130   32.9550 dc         1 CLA      0.033200
    128 H43        82.8670   52.2905   35.4129 dc         1 CLA      0.037000
    129 H42        81.5201   52.2599   34.4468 dc         1 CLA      0.037000
    130 H41        83.2870   51.9042   33.7079 dc         1 CLA      0.037000
    131 H3A        80.0057   60.0917   35.7461 dc         1 CLA      0.041100
    132 H2A        78.9694   57.4779   35.2158 dc         1 CLA      0.083100
    133 H2         81.5525   55.0854   35.3465 da         1 CLA      0.180900
    134 H18        84.8534   59.3162   44.9599 dc         1 CLA     -0.003900
    135 H13        81.5844   55.7930   41.2439 dc         1 CLA      0.019700
    136 H12        80.0780   54.9959   32.9372 dc         1 CLA      0.120400
    137 H11        81.5681   55.4191   32.2634 dc         1 CLA      0.120400
    138 C1         67.5543   61.6196   49.5847 Z1         2 LUT      0.509236
    139 C2         66.0739   61.4945   49.9921 Z2         2 LUT     -0.434695
    140 C3         65.3710   62.7451   50.3680 Z3         2 LUT      0.437453
    141 O3         65.5112   62.9333   51.8160 S1         2 LUT     -0.547129
    142 C4         65.9454   63.9641   49.6734 Z4         2 LUT     -0.468603
    143 C5         66.7586   63.6917   48.3909 Z5         2 LUT      0.279246
    144 C6         67.6199   62.6409   48.3766 Z6         2 LUT     -0.305473
    145 C7         68.2841   62.2098   47.0937 Z7         2 LUT      0.069402
    146 C8         69.0723   62.8471   46.2197 Z8         2 LUT     -0.191631
    147 C9         69.6870   62.3357   44.9769 Z9         2 LUT      0.196698
    148 C10        70.5960   63.1301   44.3482 Y1         2 LUT     -0.208611
    149 C11        71.3173   62.9765   43.1013 Y2         2 LUT      0.030784
    150 C12        72.5648   63.5421   43.0532 Y3         2 LUT     -0.220316
    151 C13        73.4900   63.5319   41.8901 Y4         2 LUT      0.215937
    152 C14        74.8267   64.0129   42.0038 Y5         2 LUT     -0.185793
    153 C15        75.7396   64.2261   40.9802 Y6         2 LUT     -0.057835
    154 C16        67.9837   60.1425   49.2188 Y7         2 LUT     -0.405615
    155 C17        68.4370   62.2058   50.7805 Y7         2 LUT     -0.405615
    156 C18        66.3226   64.5890   47.2430 Y9         2 LUT     -0.369639
    157 C19        69.1656   61.0282   44.4948 W1         2 LUT     -0.333362
    158 C20        72.8579   63.3851   40.4750 W2         2 LUT     -0.323439
    159 C21        87.2852   65.7575   34.8729 Z1         2 LUT      0.406104
    160 C22        88.0852   65.4094   33.6214 Z2         2 LUT     -0.404965
    161 C23        88.2751   66.5633   32.7255 Z3         2 LUT      0.391255
    162 O23        89.0347   66.2167   31.5187 S1         2 LUT     -0.528210
    163 C24        87.0233   67.3285   32.4175 W6         2 LUT     -0.258361
    164 C25        85.9244   67.2062   33.1742 Z5         2 LUT      0.133546
    165 C26        85.8967   66.2528   34.3730 W8         2 LUT     -0.147008
    166 C27        85.0862   66.8064   35.5727 Z7         2 LUT      0.023843
    167 C28        84.0131   66.2334   36.1669 Z8         2 LUT     -0.216987
    168 C29        83.4615   66.5092   37.4854 Z9         2 LUT      0.206524
    169 C30        82.2447   65.9730   37.8335 Y1         2 LUT     -0.215556
    170 C31        81.3333   66.2572   38.9192 Y2         2 LUT      0.025142
    171 C32        80.0833   65.6694   38.9712 Y3         2 LUT     -0.212209
    172 C33        79.0866   65.7127   40.1075 Y4         2 LUT      0.240937
    173 C34        77.7901   65.1519   40.0005 Y5         2 LUT     -0.218862
    174 C35        76.8838   65.0110   41.0296 Y6         2 LUT     -0.023547
    175 C36        88.2097   66.6290   35.7706 Y7         2 LUT     -0.393485
    176 C37        87.2753   64.2833   35.6133 Y7         2 LUT     -0.393485
    177 C38        84.6921   67.8782   32.7977 Y9         2 LUT     -0.387526
    178 C39        84.2029   67.5485   38.2967 W1         2 LUT     -0.322618
    179 C40        79.6899   65.9968   41.5027 W2         2 LUT     -0.358472
    180 H403       79.2431   66.8540   41.9073 R7         2 LUT      0.097720
    181 H402       79.4556   65.2206   42.1881 R7         2 LUT      0.097720
    182 H401       80.7688   66.0605   41.5746 R7         2 LUT      0.097720
    183 H393       84.1723   68.5130   37.8312 R4         2 LUT      0.082505
    184 H392       83.8082   67.7389   39.2885 R4         2 LUT      0.082505
    185 H391       85.2800   67.3737   38.4353 R4         2 LUT      0.082505
    186 H383       83.9439   67.1260   32.5991 R1         2 LUT      0.104030
    187 H382       84.3812   68.4319   33.6364 R1         2 LUT      0.104030
    188 H381       84.8970   68.4724   31.9303 R1         2 LUT      0.104030
    189 H373       86.8592   64.3833   36.5843 T4         2 LUT      0.089537
    190 H372       86.6542   63.4562   35.1107 T4         2 LUT      0.089537
    191 H371       88.2085   63.8670   35.9219 T4         2 LUT      0.089537
    192 H363       89.1783   66.0748   35.9099 T4         2 LUT      0.089537
    193 H362       88.5691   67.5086   35.2726 T4         2 LUT      0.089537
    194 H361       87.7961   66.8517   36.7612 T4         2 LUT      0.089537
    195 H222       88.9605   64.9601   33.9135 U2         2 LUT      0.127376
    196 H221       87.6376   64.6536   32.9418 U2         2 LUT      0.127376
    197 H203       71.7955   63.6217   40.4910 R7         2 LUT      0.087068
    198 H202       73.2721   64.1863   39.9667 R7         2 LUT      0.087068
    199 H201       73.0560   62.4681   39.9572 R7         2 LUT      0.087068
    200 H193       69.5306   60.2677   45.1386 R4         2 LUT      0.089716
    201 H192       68.0325   60.9609   44.5096 R4         2 LUT      0.089716
    202 H191       69.5394   60.8927   43.4617 R4         2 LUT      0.089716
    203 H183       66.5784   64.1077   46.2933 R1         2 LUT      0.094572
    204 H182       65.2473   64.7931   47.2962 R1         2 LUT      0.094572
    205 H181       66.8532   65.5079   47.2542 R1         2 LUT      0.094572
    206 H173       68.4739   63.3219   50.8179 T4         2 LUT      0.093752
    207 H172       67.8867   61.8723   51.7180 T4         2 LUT      0.093752
    208 H171       69.4384   61.8784   50.7206 T4         2 LUT      0.093752
    209 H163       69.0547   60.0553   49.0235 T4         2 LUT      0.093752
    210 H162       67.7032   59.4498   50.0027 T4         2 LUT      0.093752
    211 H161       67.3939   59.6922   48.3938 T4         2 LUT      0.093752
    212 HO3        64.7885   62.5202   52.3120 Q1         2 LUT      0.300121
    213 H8         69.2692   63.9198   46.4490 U7         2 LUT      0.080784
    214 H7         68.0990   61.1522   46.7791 U6         2 LUT      0.042190
    215 H42        65.0417   64.4992   49.3846 U5         2 LUT      0.145166
    216 H41        66.5436   64.6585   50.2444 U5         2 LUT      0.145166
    217 H35        76.9744   65.6421   41.9380 T3         2 LUT      0.077919
    218 H34        77.4258   64.5383   39.0881 T2         2 LUT      0.073626
    219 H32        79.6264   65.1614   38.0769 T1         2 LUT      0.092510
    220 H31        81.7212   66.8951   39.7567 U9         2 LUT      0.070048
    221 H30        81.6919   65.3311   37.1278 U8         2 LUT      0.085442
    222 H3         64.3102   62.6917   50.0961 U3         2 LUT     -0.031596
    223 H28        83.6318   65.3184   35.7171 U7         2 LUT      0.084728
    224 H27        85.5215   67.6579   36.1560 U6         2 LUT      0.087291
    225 H26        85.2886   65.4386   33.8883 Q6         2 LUT      0.075325
    226 H24        86.9033   68.0732   31.6644 Q5         2 LUT      0.094482
    227 H23        88.9928   67.2665   33.2018 U3         2 LUT     -0.024869
    228 H22        65.6049   60.9806   49.1423 U2         2 LUT      0.127376
    229 H21        65.8491   60.8035   50.7685 U2         2 LUT      0.127376
    230 H15        75.5656   63.6775   40.0797 T3         2 LUT      0.093200
    231 H14        75.1260   64.5191   42.9202 T2         2 LUT      0.068865
    232 H12        72.9534   63.8639   44.0086 T1         2 LUT      0.095507
    233 H11        71.0158   62.3652   42.2606 U9         2 LUT      0.068930
    234 H10        70.8686   63.9414   44.9755 U8         2 LUT      0.083911
    235 H1         88.5125   65.7943   30.8176 Q1         2 LUT      0.297311
@<TRIPOS>BOND
    1     6     1 1
    2     7     2 1
    3     8     3 1
    4     9     4 1
    5    11     4 1
    6    12     6 1
    7    13     9 1
    8    16     9 1
    9    25     5 1
   10    25    16 1
   11    26    10 1
   12    26    17 1
   13    27    18 1
   14    28    14 1
   15    28    19 1
   16    29    12 1
   17    30    13 1
   18    31    24 1
   19    32     1 1
   20    32    25 1
   21    33    21 1
   22    33    26 1
   23    34    22 1
   24    34    27 1
   25    35    23 1
   26    35    28 1
   27    36    12 1
   28    36    24 1
   29    37    13 1
   30    37    15 1
   31    38    31 1
   32    39    20 1
   33    39    32 1
   34    40     2 1
   35    40    33 1
   36    41     3 1
   37    41    34 1
   38    42     4 1
   39    42    35 1
   40    43    38 1
   41    44     5 1
   42    44    17 1
   43    44    39 1
   44    45    10 1
   45    45    18 1
   46    45    40 1
   47    46    19 1
   48    46    41 1
   49    47    14 1
   50    47    16 1
   51    47    42 1
   52    48    38 1
   53    49    48 1
   54    50    49 1
   55    51    50 1
   56    52    51 1
   57    53    51 1
   58    54    53 1
   59    55    54 1
   60    56    55 1
   61    57    56 1
   62    58    56 1
   63    59    58 1
   64    60    59 1
   65    61    60 1
   66    62    61 1
   67    63    61 1
   68    64    27 1
   69    64    46 1
   70    65     5 1
   71    65    10 1
   72    65    64 1
   73    65    14 1
   74    66    23 1
   75    67    23 1
   76    68    23 1
   77    69    22 1
   78    70    22 1
   79    71    22 1
   80    72    21 1
   81    73    21 1
   82    74    21 1
   83    75    20 1
   84    76    20 1
   85    77    20 1
   86    78    15 1
   87    79    15 1
   88    80    15 1
   89    81     8 1
   90    82     8 1
   91    83     8 1
   92    84     7 1
   93    85     7 1
   94    86     6 1
   95    87     6 1
   96    88     3 1
   97    89     3 1
   98    90     1 1
   99    91     1 1
  100    92    63 1
  101    93    63 1
  102    94    63 1
  103    95    62 1
  104    96    62 1
  105    97    62 1
  106    98    60 1
  107    99    60 1
  108   100    59 1
  109   101    59 1
  110   102    58 1
  111   103    58 1
  112   104    57 1
  113   105    57 1
  114   106    57 1
  115   107    55 1
  116   108    55 1
  117   109    54 1
  118   110    54 1
  119   111    53 1
  120   112    53 1
  121   113    19 1
  122   114    18 1
  123   115    17 1
  124   116     9 1
  125   117     2 1
  126   118    52 1
  127   119    52 1
  128   120    52 1
  129   121    51 1
  130   122    50 1
  131   123    50 1
  132   124    49 1
  133   125    49 1
  134   126    48 1
  135   127    48 1
  136   128    43 1
  137   129    43 1
  138   130    43 1
  139   131    39 1
  140   132    32 1
  141   133    31 1
  142   134    61 1
  143   135    56 1
  144   136    24 1
  145   137    24 1
  146   139   138 1
  147   140   139 1
  148   141   140 1
  149   142   140 1
  150   143   142 1
  151   144   138 1
  152   144   143 1
  153   145   144 1
  154   146   145 1
  155   147   146 1
  156   148   147 1
  157   149   148 1
  158   150   149 1
  159   151   150 1
  160   152   151 1
  161   153   152 1
  162   154   138 1
  163   155   138 1
  164   156   143 1
  165   157   147 1
  166   158   151 1
  167   160   159 1
  168   161   160 1
  169   162   161 1
  170   163   161 1
  171   164   163 1
  172   165   159 1
  173   165   164 1
  174   166   165 1
  175   167   166 1
  176   168   167 1
  177   169   168 1
  178   170   169 1
  179   171   170 1
  180   172   171 1
  181   173   172 1
  182   174   153 1
  183   174   173 1
  184   175   159 1
  185   176   159 1
  186   177   164 1
  187   178   168 1
  188   179   172 1
  189   180   179 1
  190   181   179 1
  191   182   179 1
  192   183   178 1
  193   184   178 1
  194   185   178 1
  195   186   177 1
  196   187   177 1
  197   188   177 1
  198   189   176 1
  199   190   176 1
  200   191   176 1
  201   192   175 1
  202   193   175 1
  203   194   175 1
  204   195   160 1
  205   196   160 1
  206   197   158 1
  207   198   158 1
  208   199   158 1
  209   200   157 1
  210   201   157 1
  211   202   157 1
  212   203   156 1
  213   204   156 1
  214   205   156 1
  215   206   155 1
  216   207   155 1
  217   208   155 1
  218   209   154 1
  219   210   154 1
  220   211   154 1
  221   212   141 1
  222   213   146 1
  223   214   145 1
  224   215   142 1
  225   216   142 1
  226   217   174 1
  227   218   173 1
  228   219   171 1
  229   220   170 1
  230   221   169 1
  231   222   140 1
  232   223   167 1
  233   224   166 1
  234   225   165 1
  235   226   163 1
  236   227   161 1
  237   228   139 1
  238   229   139 1
  239   230   153 1
  240   231   152 1
  241   232   150 1
  242   233   149 1
  243   234   148 1
  244   235   162 1
  245   65    153 1
  246   65    174 1
@<TRIPOS>SUBSTRUCTURE
      1 CLA               1 ****               0 ****  **** 
      2 LUT             138 ****               0 ****  **** 
