@<TRIPOS>MOLECULE
Cpptraj generated mol2 file.
  235   246     2     0     0
SMALL
USER_CHARGES


@<TRIPOS>ATOM
      1 CAA        79.7393   58.6762   34.7136 a2         1 CLA     -0.055900
      2 CAB        79.4424   62.3781   43.6827 c8         1 CLA     -0.148500
      3 CAC        72.5853   58.2018   42.5468 a2         1 CLA     -0.012600
      4 CAD        75.7337   55.8700   35.5331 ck         1 CLA      0.398800
      5 NA         78.6769   58.9316   38.0871 ns         1 CLA     -0.225500
      6 CBA        81.0002   58.6577   33.7526 a2         1 CLA     -0.135000
      7 CBB        80.4215   63.1186   44.3131 c0         1 CLA     -0.395200
      8 CBC        72.7185   56.6378   42.6866 a3         1 CLA     -0.037700
      9 CBD        77.2418   56.5366   35.3494 a1         1 CLA     -0.053900
     10 NB         78.4104   60.4831   40.5968 nm         1 CLA     -0.295700
     11 OBD        75.1693   55.1740   34.6665 o2         1 CLA     -0.494600
     12 CGA        81.6774   57.3315   33.4298 c4         1 CLA      0.827000
     13 CGD        78.1905   55.4267   35.0682 c4         1 CLA      0.655300
     14 ND         75.7715   58.0302   38.3267 nm         1 CLA     -0.291600
     15 CED        79.1515   53.3670   35.9159 a3         1 CLA      0.005400
     16 CHA        77.4268   57.4308   36.5911 cs         1 CLA     -0.123800
     17 CHB        80.3656   60.3213   39.1706 aa         1 CLA     -0.291900
     18 CHC        76.9734   60.6357   42.5313 aa         1 CLA     -0.090400
     19 CHD        73.9943   57.7779   39.8944 aa         1 CLA     -0.052000
     20 CMA        82.0303   58.1652   37.7092 a3         1 CLA     -0.230700
     21 CMB        81.6374   62.4149   41.2258 a3         1 CLA     -0.180800
     22 CMC        74.6599   60.0263   44.4025 a3         1 CLA     -0.134000
     23 CMD        72.9017   55.7289   37.6560 a3         1 CLA     -0.141100
     24 C1         82.5673   55.3372   34.3504 a2         1 CLA      0.023000
     25 C1A        78.6028   58.0976   36.9090 ac         1 CLA     -0.015100
     26 C1B        79.7139   60.8119   40.3074 cr         1 CLA      0.054700
     27 C1C        75.8380   59.8978   42.1385 cn         1 CLA     -0.005600
     28 C1D        74.6130   57.4447   38.6750 ap         1 CLA     -0.047300
     29 O1A        81.6795   56.8263   32.3133 o2         1 CLA     -0.610800
     30 O1D        78.9414   55.4856   34.0781 o2         1 CLA     -0.558200
     31 C2         83.0718   54.7675   35.6659 c8         1 CLA     -0.325100
     32 C2A        79.9575   58.1748   36.1672 a1         1 CLA      0.098600
     33 C2B        80.2643   61.6979   41.2997 cb         1 CLA      0.088500
     34 C2C        74.7572   59.4918   43.0322 cb         1 CLA      0.053700
     35 C2D        74.1809   56.4624   37.6627 cb         1 CLA      0.058900
     36 O2A        82.0565   56.6964   34.5719 o1         1 CLA     -0.437200
     37 O2D        78.1897   54.4324   36.0237 o1         1 CLA     -0.357600
     38 C3         83.9991   53.7946   35.7364 c5         1 CLA      0.031200
     39 C3A        80.8373   59.0010   37.0853 a1         1 CLA      0.166800
     40 C3B        79.3728   61.7300   42.3763 cb         1 CLA      0.035000
     41 C3C        73.8957   58.7568   42.2197 cb         1 CLA     -0.089900
     42 C3D        75.2513   56.4179   36.7673 cb         1 CLA     -0.035900
     43 C4         83.5051   52.4290   35.5610 a3         1 CLA     -0.053300
     44 C4A        79.9104   59.4269   38.1912 ac         1 CLA      0.001800
     45 C4B        78.1918   60.9668   41.8624 cn         1 CLA     -0.020900
     46 C4C        74.4607   58.6400   40.9565 cr         1 CLA     -0.044400
     47 C4D        76.2005   57.4021   37.2294 c6         1 CLA     -0.046000
     48 C5         85.4517   54.1294   35.4334 a2         1 CLA     -0.070400
     49 C6         86.1248   55.4091   36.2080 a2         1 CLA      0.043900
     50 C7         85.8919   55.4660   37.7825 a2         1 CLA     -0.150000
     51 C8         86.5673   56.6690   38.6207 a1         1 CLA      0.064200
     52 C9         87.5693   57.4127   37.8010 a3         1 CLA     -0.259300
     53 C10        86.9944   56.1186   40.0683 a2         1 CLA     -0.071900
     54 C11        87.5514   57.2758   40.9903 a2         1 CLA      0.014500
     55 C12        87.5806   56.8759   42.4744 a2         1 CLA     -0.112100
     56 C13        87.8384   57.9529   43.5581 a1         1 CLA      0.089200
     57 C14        89.2878   58.4387   43.5543 a3         1 CLA     -0.239100
     58 C15        87.4301   57.4086   45.0135 a2         1 CLA     -0.102200
     59 C16        87.4702   58.3529   46.2692 a2         1 CLA      0.023900
     60 C17        86.0572   58.6369   46.8349 a2         1 CLA     -0.105700
     61 C18        86.1575   59.4909   48.1068 a1         1 CLA      0.206800
     62 C19        84.8768   60.2657   48.3404 a3         1 CLA     -0.280100
     63 C20        86.5365   58.6176   49.3278 a3         1 CLA     -0.280100
     64 NC         75.6392   59.3699   40.9248 nx         1 CLA     -0.309200
     65 MG         77.0255   59.3090   39.4535 mg         1 CLA      0.895000
     66 HMD3       72.9718   55.1320   38.5621 dc         1 CLA      0.064300
     67 HMD2       72.1754   56.5093   37.8397 dc         1 CLA      0.064300
     68 HMD1       72.8015   55.0939   36.8535 dc         1 CLA      0.064300
     69 HMC3       74.8388   61.1050   44.4916 dc         1 CLA      0.052100
     70 HMC2       73.5922   59.9049   44.6116 dc         1 CLA      0.052100
     71 HMC1       75.2930   59.5053   45.1343 dc         1 CLA      0.052100
     72 HMB3       81.9279   62.5664   40.1625 dc         1 CLA      0.063600
     73 HMB2       81.5305   63.4835   41.5188 dc         1 CLA      0.063600
     74 HMB1       82.4011   61.9089   41.7539 dc         1 CLA      0.063600
     75 HMA3       81.7411   57.2377   38.2010 dc         1 CLA      0.058300
     76 HMA2       82.7793   57.8272   36.9800 dc         1 CLA      0.058300
     77 HMA1       82.4150   58.7790   38.5193 dc         1 CLA      0.058300
     78 HED3       80.2318   53.6794   35.8614 dc         1 CLA      0.079300
     79 HED2       78.9396   52.6929   36.7334 dc         1 CLA      0.079300
     80 HED1       79.0501   52.7516   34.9916 dc         1 CLA      0.079300
     81 HBC3       71.6360   56.3181   42.7810 dc         1 CLA      0.016300
     82 HBC2       73.2166   56.0934   41.8893 dc         1 CLA      0.016300
     83 HBC1       73.2820   56.5246   43.6134 dc         1 CLA      0.016300
     84 HBB2       80.4223   63.4922   45.3827 da         1 CLA      0.183000
     85 HBB1       81.2567   63.3496   43.6899 da         1 CLA      0.183000
     86 HBA2       80.7642   59.0556   32.7600 dc         1 CLA      0.029400
     87 HBA1       81.8508   59.2471   34.2031 dc         1 CLA      0.029400
     88 HAC2       72.1333   58.6977   43.4133 dc         1 CLA      0.029300
     89 HAC1       71.9243   58.3317   41.7711 dc         1 CLA      0.029300
     90 HAA2       78.9470   58.2059   34.1878 dc         1 CLA      0.028700
     91 HAA1       79.4151   59.7512   34.6972 dc         1 CLA      0.028700
     92 H203       85.7988   57.8831   49.4801 dc         1 CLA      0.065600
     93 H202       87.4850   58.0129   49.2285 dc         1 CLA      0.065600
     94 H201       86.5380   59.1976   50.2638 dc         1 CLA      0.065600
     95 H193       84.4203   60.8030   47.4991 dc         1 CLA      0.065600
     96 H192       84.1194   59.6091   48.7902 dc         1 CLA      0.065600
     97 H191       84.9879   60.8642   49.2045 dc         1 CLA      0.065600
     98 H172       85.4306   59.1073   46.0517 dc         1 CLA      0.027600
     99 H171       85.5236   57.6852   47.1028 dc         1 CLA      0.027600
    100 H162       88.2133   58.0136   46.9889 dc         1 CLA      0.002900
    101 H161       87.8344   59.2715   45.8039 dc         1 CLA      0.002900
    102 H152       86.4662   57.0088   44.9155 dc         1 CLA      0.029100
    103 H151       87.9837   56.5089   45.2279 dc         1 CLA      0.029100
    104 H143       89.5701   58.6363   42.5160 dc         1 CLA      0.063600
    105 H142       89.3288   59.3979   44.1065 dc         1 CLA      0.063600
    106 H141       89.8767   57.7096   44.0657 dc         1 CLA      0.063600
    107 H122       86.6392   56.3329   42.7420 dc         1 CLA      0.032500
    108 H121       88.2906   56.1078   42.7068 dc         1 CLA      0.032500
    109 H112       88.5548   57.5251   40.7188 dc         1 CLA      0.006600
    110 H111       86.9751   58.1792   40.8625 dc         1 CLA      0.006600
    111 H102       86.1271   55.7441   40.4930 dc         1 CLA      0.024100
    112 H101       87.7792   55.3310   39.8764 dc         1 CLA      0.024100
    113 HHD        73.1667   57.2042   40.1686 da         1 CLA      0.174300
    114 HHC        77.0005   60.9215   43.5660 da         1 CLA      0.136800
    115 HHB        81.4291   60.6335   39.0963 da         1 CLA      0.138300
    116 HBD        77.0625   57.1518   34.5014 dc         1 CLA      0.107700
    117 HAB        78.4862   62.2280   44.1984 da         1 CLA      0.155200
    118 H93        87.7916   58.2714   38.4114 dc         1 CLA      0.069500
    119 H92        88.5014   56.9259   37.5807 dc         1 CLA      0.069500
    120 H91        87.0905   57.7423   36.8881 dc         1 CLA      0.069500
    121 H8         85.7412   57.4009   38.6797 dc         1 CLA      0.029300
    122 H72        84.8412   55.3746   38.0107 dc         1 CLA      0.044400
    123 H71        86.3491   54.5918   38.1824 dc         1 CLA      0.044400
    124 H62        87.1916   55.3987   35.9817 dc         1 CLA      0.015600
    125 H61        85.7758   56.3456   35.7003 dc         1 CLA      0.015600
    126 H52        86.0929   53.2704   35.5967 dc         1 CLA      0.033200
    127 H51        85.4070   54.4681   34.3591 dc         1 CLA      0.033200
    128 H43        83.7096   52.0927   34.5741 dc         1 CLA      0.037000
    129 H42        84.0666   51.8481   36.2271 dc         1 CLA      0.037000
    130 H41        82.4443   52.4215   35.8506 dc         1 CLA      0.037000
    131 H3A        81.2197   59.9350   36.5947 dc         1 CLA      0.041100
    132 H2A        80.3114   57.1641   36.1954 dc         1 CLA      0.083100
    133 H2         82.7880   55.1794   36.6219 da         1 CLA      0.180900
    134 H18        86.9092   60.2577   47.9914 dc         1 CLA     -0.003900
    135 H13        87.1520   58.8260   43.3292 dc         1 CLA      0.019700
    136 H12        81.7049   54.6703   34.0996 dc         1 CLA      0.120400
    137 H11        83.4128   55.3488   33.6466 dc         1 CLA      0.120400
    138 C1         69.5434   61.5315   50.3654 Z1         2 LUT      0.509236
    139 C2         69.0849   62.4573   51.5410 Z2         2 LUT     -0.434695
    140 C3         67.6406   62.8497   51.4943 Z3         2 LUT      0.437453
    141 O3         67.3330   63.7210   52.5494 S1         2 LUT     -0.547129
    142 C4         67.4330   63.5589   50.2176 Z4         2 LUT     -0.468603
    143 C5         68.0334   63.0147   48.9607 Z5         2 LUT      0.279246
    144 C6         68.9842   62.0715   48.9572 Z6         2 LUT     -0.305473
    145 C7         69.7327   61.7422   47.7264 Z7         2 LUT      0.069402
    146 C8         70.5580   62.5510   46.9454 Z8         2 LUT     -0.191631
    147 C9         71.0797   62.2628   45.5433 Z9         2 LUT      0.196698
    148 C10        71.9548   63.1457   44.9696 Y1         2 LUT     -0.208611
    149 C11        72.6203   63.0742   43.6945 Y2         2 LUT      0.030784
    150 C12        73.7212   63.7916   43.3506 Y3         2 LUT     -0.220316
    151 C13        74.7189   63.5742   42.2947 Y4         2 LUT      0.215937
    152 C14        75.9901   64.1504   42.4001 Y5         2 LUT     -0.185793
    153 C15        77.0008   64.1515   41.3851 Y6         2 LUT     -0.057835
    154 C16        68.9846   60.1219   50.7391 Y7         2 LUT     -0.405615
    155 C17        71.0655   61.4559   50.4259 Y7         2 LUT     -0.405615
    156 C18        67.5599   63.8734   47.7560 Y9         2 LUT     -0.369639
    157 C19        70.5374   60.9514   44.9771 W1         2 LUT     -0.333362
    158 C20        74.2739   62.8310   41.0827 W2         2 LUT     -0.323439
    159 C21        88.6700   65.9257   35.2626 Z1         2 LUT      0.406104
    160 C22        89.2439   65.2580   33.9434 Z2         2 LUT     -0.404965
    161 C23        89.0822   66.2227   32.6904 Z3         2 LUT      0.391255
    162 O23        89.3379   65.3366   31.6240 S1         2 LUT     -0.528210
    163 C24        87.6939   66.8474   32.5849 W6         2 LUT     -0.258361
    164 C25        86.7918   66.7990   33.6336 Z5         2 LUT      0.133546
    165 C26        87.0709   65.9953   34.9674 W8         2 LUT     -0.147008
    166 C27        86.2565   66.6068   36.1202 Z7         2 LUT      0.023843
    167 C28        85.2059   66.1216   36.8023 Z8         2 LUT     -0.216987
    168 C29        84.4707   66.6947   37.9404 Z9         2 LUT      0.206524
    169 C30        83.3368   66.0431   38.3440 Y1         2 LUT     -0.215556
    170 C31        82.5098   66.3260   39.4999 Y2         2 LUT      0.025142
    171 C32        81.3182   65.7201   39.6458 Y3         2 LUT     -0.212209
    172 C33        80.3966   65.7823   40.7747 Y4         2 LUT      0.240937
    173 C34        79.2400   65.0548   40.7618 Y5         2 LUT     -0.218862
    174 C35        78.1759   64.7941   41.5952 Y6         2 LUT     -0.023547
    175 C36        89.3318   67.3572   35.5761 Y7         2 LUT     -0.393485
    176 C37        88.9942   64.9864   36.4709 Y7         2 LUT     -0.393485
    177 C38        85.4025   67.4031   33.5646 Y9         2 LUT     -0.387526
    178 C39        84.9593   67.9738   38.5804 W1         2 LUT     -0.322618
    179 C40        80.7662   66.7052   41.9643 W2         2 LUT     -0.358472
    180 H403       80.6973   67.7654   41.7351 R7         2 LUT      0.097720
    181 H402       80.1663   66.5316   42.8255 R7         2 LUT      0.097720
    182 H401       81.8466   66.5398   42.1554 R7         2 LUT      0.097720
    183 H393       84.6460   68.9158   38.1228 R4         2 LUT      0.082505
    184 H392       84.7393   68.0623   39.5982 R4         2 LUT      0.082505
    185 H391       86.0433   68.0433   38.5244 R4         2 LUT      0.082505
    186 H383       85.3699   68.0862   32.6971 R1         2 LUT      0.104030
    187 H382       84.6242   66.6751   33.3586 R1         2 LUT      0.104030
    188 H381       85.0770   68.0340   34.3942 R1         2 LUT      0.104030
    189 H373       90.1277   64.8013   36.5176 T4         2 LUT      0.089537
    190 H372       88.7425   65.3799   37.4633 T4         2 LUT      0.089537
    191 H371       88.5232   64.0146   36.3389 T4         2 LUT      0.089537
    192 H363       88.9551   67.8078   36.4804 T4         2 LUT      0.089537
    193 H362       90.4226   67.3837   35.6489 T4         2 LUT      0.089537
    194 H361       89.1484   68.0680   34.7859 T4         2 LUT      0.089537
    195 H222       90.2406   64.9229   34.0401 U2         2 LUT      0.127376
    196 H221       88.5693   64.4450   33.7481 U2         2 LUT      0.127376
    197 H203       73.9441   63.5801   40.2736 R7         2 LUT      0.087068
    198 H202       75.1477   62.2624   40.6668 R7         2 LUT      0.087068
    199 H201       73.5061   62.0918   41.2046 R7         2 LUT      0.087068
    200 H193       71.1361   60.1010   45.2090 R4         2 LUT      0.089716
    201 H192       69.4667   60.7913   45.1763 R4         2 LUT      0.089716
    202 H191       70.6409   60.9301   43.9354 R4         2 LUT      0.089716
    203 H183       68.0709   64.8589   47.6844 R1         2 LUT      0.094572
    204 H182       67.7207   63.4369   46.7299 R1         2 LUT      0.094572
    205 H181       66.5451   64.1696   47.9307 R1         2 LUT      0.094572
    206 H173       71.5030   62.3856   50.2020 T4         2 LUT      0.093752
    207 H172       71.3809   61.1463   51.4095 T4         2 LUT      0.093752
    208 H171       71.5144   60.7527   49.7308 T4         2 LUT      0.093752
    209 H163       69.4030   59.7453   51.6569 T4         2 LUT      0.093752
    210 H162       67.9397   60.0363   50.7724 T4         2 LUT      0.093752
    211 H161       69.3803   59.3325   50.0088 T4         2 LUT      0.093752
    212 HO3        67.0250   63.2089   53.3386 Q1         2 LUT      0.300121
    213 H8         70.7911   63.5691   47.3590 U7         2 LUT      0.080784
    214 H7         69.6332   60.6855   47.3595 U6         2 LUT      0.042190
    215 H42        66.3608   63.5567   49.9987 U5         2 LUT      0.145166
    216 H41        67.8318   64.5803   50.2444 U5         2 LUT      0.145166
    217 H35        78.2320   65.2436   42.5880 T3         2 LUT      0.077919
    218 H34        79.1918   64.6209   39.7364 T2         2 LUT      0.073626
    219 H32        81.0925   65.0512   38.8124 T1         2 LUT      0.092510
    220 H31        82.8283   67.0289   40.2807 U9         2 LUT      0.070048
    221 H30        83.0708   65.1441   37.8685 U8         2 LUT      0.085442
    222 H3         66.9649   61.9570   51.5200 U3         2 LUT     -0.031596
    223 H28        84.7116   65.2228   36.3030 U7         2 LUT      0.084728
    224 H27        86.7671   67.4741   36.5224 U6         2 LUT      0.087291
    225 H26        86.6216   65.0013   34.8466 Q6         2 LUT      0.075325
    226 H24        87.3887   67.3550   31.6621 Q5         2 LUT      0.094482
    227 H23        89.8072   66.9967   32.8086 U3         2 LUT     -0.024869
    228 H22        69.4106   62.1345   52.5314 U2         2 LUT      0.127376
    229 H21        69.5994   63.3948   51.4023 U2         2 LUT      0.127376
    230 H15        76.8649   63.6089   40.4562 T3         2 LUT      0.093200
    231 H14        76.1602   64.7078   43.3391 T2         2 LUT      0.068865
    232 H12        74.1552   64.5460   44.0546 T1         2 LUT      0.095507
    233 H11        72.4304   62.1376   43.1127 U9         2 LUT      0.068930
    234 H10        72.2819   64.0092   45.5200 U8         2 LUT      0.083911
    235 H1         89.3940   65.7906   30.7861 Q1         2 LUT      0.297311
@<TRIPOS>BOND
    1     6     1 1
    2     7     2 1
    3     8     3 1
    4     9     4 1
    5    11     4 1
    6    12     6 1
    7    13     9 1
    8    16     9 1
    9    25     5 1
   10    25    16 1
   11    26    10 1
   12    26    17 1
   13    27    18 1
   14    28    14 1
   15    28    19 1
   16    29    12 1
   17    30    13 1
   18    31    24 1
   19    32     1 1
   20    32    25 1
   21    33    21 1
   22    33    26 1
   23    34    22 1
   24    34    27 1
   25    35    23 1
   26    35    28 1
   27    36    12 1
   28    36    24 1
   29    37    13 1
   30    37    15 1
   31    38    31 1
   32    39    20 1
   33    39    32 1
   34    40     2 1
   35    40    33 1
   36    41     3 1
   37    41    34 1
   38    42     4 1
   39    42    35 1
   40    43    38 1
   41    44     5 1
   42    44    17 1
   43    44    39 1
   44    45    10 1
   45    45    18 1
   46    45    40 1
   47    46    19 1
   48    46    41 1
   49    47    14 1
   50    47    16 1
   51    47    42 1
   52    48    38 1
   53    49    48 1
   54    50    49 1
   55    51    50 1
   56    52    51 1
   57    53    51 1
   58    54    53 1
   59    55    54 1
   60    56    55 1
   61    57    56 1
   62    58    56 1
   63    59    58 1
   64    60    59 1
   65    61    60 1
   66    62    61 1
   67    63    61 1
   68    64    27 1
   69    64    46 1
   70    65     5 1
   71    65    10 1
   72    65    64 1
   73    65    14 1
   74    66    23 1
   75    67    23 1
   76    68    23 1
   77    69    22 1
   78    70    22 1
   79    71    22 1
   80    72    21 1
   81    73    21 1
   82    74    21 1
   83    75    20 1
   84    76    20 1
   85    77    20 1
   86    78    15 1
   87    79    15 1
   88    80    15 1
   89    81     8 1
   90    82     8 1
   91    83     8 1
   92    84     7 1
   93    85     7 1
   94    86     6 1
   95    87     6 1
   96    88     3 1
   97    89     3 1
   98    90     1 1
   99    91     1 1
  100    92    63 1
  101    93    63 1
  102    94    63 1
  103    95    62 1
  104    96    62 1
  105    97    62 1
  106    98    60 1
  107    99    60 1
  108   100    59 1
  109   101    59 1
  110   102    58 1
  111   103    58 1
  112   104    57 1
  113   105    57 1
  114   106    57 1
  115   107    55 1
  116   108    55 1
  117   109    54 1
  118   110    54 1
  119   111    53 1
  120   112    53 1
  121   113    19 1
  122   114    18 1
  123   115    17 1
  124   116     9 1
  125   117     2 1
  126   118    52 1
  127   119    52 1
  128   120    52 1
  129   121    51 1
  130   122    50 1
  131   123    50 1
  132   124    49 1
  133   125    49 1
  134   126    48 1
  135   127    48 1
  136   128    43 1
  137   129    43 1
  138   130    43 1
  139   131    39 1
  140   132    32 1
  141   133    31 1
  142   134    61 1
  143   135    56 1
  144   136    24 1
  145   137    24 1
  146   139   138 1
  147   140   139 1
  148   141   140 1
  149   142   140 1
  150   143   142 1
  151   144   138 1
  152   144   143 1
  153   145   144 1
  154   146   145 1
  155   147   146 1
  156   148   147 1
  157   149   148 1
  158   150   149 1
  159   151   150 1
  160   152   151 1
  161   153   152 1
  162   154   138 1
  163   155   138 1
  164   156   143 1
  165   157   147 1
  166   158   151 1
  167   160   159 1
  168   161   160 1
  169   162   161 1
  170   163   161 1
  171   164   163 1
  172   165   159 1
  173   165   164 1
  174   166   165 1
  175   167   166 1
  176   168   167 1
  177   169   168 1
  178   170   169 1
  179   171   170 1
  180   172   171 1
  181   173   172 1
  182   174   153 1
  183   174   173 1
  184   175   159 1
  185   176   159 1
  186   177   164 1
  187   178   168 1
  188   179   172 1
  189   180   179 1
  190   181   179 1
  191   182   179 1
  192   183   178 1
  193   184   178 1
  194   185   178 1
  195   186   177 1
  196   187   177 1
  197   188   177 1
  198   189   176 1
  199   190   176 1
  200   191   176 1
  201   192   175 1
  202   193   175 1
  203   194   175 1
  204   195   160 1
  205   196   160 1
  206   197   158 1
  207   198   158 1
  208   199   158 1
  209   200   157 1
  210   201   157 1
  211   202   157 1
  212   203   156 1
  213   204   156 1
  214   205   156 1
  215   206   155 1
  216   207   155 1
  217   208   155 1
  218   209   154 1
  219   210   154 1
  220   211   154 1
  221   212   141 1
  222   213   146 1
  223   214   145 1
  224   215   142 1
  225   216   142 1
  226   217   174 1
  227   218   173 1
  228   219   171 1
  229   220   170 1
  230   221   169 1
  231   222   140 1
  232   223   167 1
  233   224   166 1
  234   225   165 1
  235   226   163 1
  236   227   161 1
  237   228   139 1
  238   229   139 1
  239   230   153 1
  240   231   152 1
  241   232   150 1
  242   233   149 1
  243   234   148 1
  244   235   162 1
  245   65    153 1
  246   65    174 1
@<TRIPOS>SUBSTRUCTURE
      1 CLA               1 ****               0 ****  **** 
      2 LUT             138 ****               0 ****  **** 
