@<TRIPOS>MOLECULE
Cpptraj generated mol2 file.
  235   246     2     0     0
SMALL
USER_CHARGES


@<TRIPOS>ATOM
      1 CAA        78.0861   56.8487   34.5199 a2         1 CLA     -0.055900
      2 CAB        78.3466   61.8062   42.7451 c8         1 CLA     -0.148500
      3 CAC        71.5603   57.9128   43.3031 a2         1 CLA     -0.012600
      4 CAD        73.4717   54.8201   35.9731 ck         1 CLA      0.398800
      5 NA         77.0850   57.5770   37.8023 ns         1 CLA     -0.225500
      6 CBA        79.3231   56.4710   33.6998 a2         1 CLA     -0.135000
      7 CBB        79.4933   62.0546   43.3645 c0         1 CLA     -0.395200
      8 CBC        71.6725   56.3904   43.4888 a3         1 CLA     -0.037700
      9 CBD        74.9793   55.1680   35.5315 a1         1 CLA     -0.053900
     10 NB         77.0956   59.6342   40.0095 nm         1 CLA     -0.295700
     11 OBD        72.7815   53.9380   35.3726 o2         1 CLA     -0.494600
     12 CGA        79.6231   55.0320   33.4352 c4         1 CLA      0.827000
     13 CGD        75.7373   53.8826   35.3265 c4         1 CLA      0.655300
     14 ND         74.2294   57.1838   38.4799 nm         1 CLA     -0.291600
     15 CED        76.1499   51.5747   36.0999 a3         1 CLA      0.005400
     16 CHA        75.4462   56.1646   36.6117 cs         1 CLA     -0.123800
     17 CHB        78.9626   58.9190   38.6590 aa         1 CLA     -0.291900
     18 CHC        75.7968   60.3444   42.0136 aa         1 CLA     -0.090400
     19 CHD        72.5400   57.2387   40.2834 aa         1 CLA     -0.052000
     20 CMA        80.2731   56.2572   37.5336 a3         1 CLA     -0.230700
     21 CMB        80.3893   61.1741   40.2790 a3         1 CLA     -0.180800
     22 CMC        73.6634   59.8572   44.4311 a3         1 CLA     -0.134000
     23 CMD        70.8949   55.2624   38.2639 a3         1 CLA     -0.141100
     24 C1         80.5041   53.0159   34.5811 a2         1 CLA      0.023000
     25 C1A        76.7839   56.6678   36.8293 ac         1 CLA     -0.015100
     26 C1B        78.3637   59.7539   39.6279 cr         1 CLA      0.054700
     27 C1C        74.6570   59.5300   41.9776 cn         1 CLA     -0.005600
     28 C1D        72.9709   56.8937   39.0156 ap         1 CLA     -0.047300
     29 O1A        79.3742   54.4363   32.4045 o2         1 CLA     -0.610800
     30 O1D        76.5648   53.7464   34.4316 o2         1 CLA     -0.558200
     31 C2         80.5705   52.5594   36.0371 c8         1 CLA     -0.325100
     32 C2A        78.0830   56.4251   35.9837 a1         1 CLA      0.098600
     33 C2B        79.0114   60.7446   40.4645 cb         1 CLA      0.088500
     34 C2C        73.6029   59.3158   43.0225 cb         1 CLA      0.053700
     35 C2D        72.3097   55.9085   38.1674 cb         1 CLA      0.058900
     36 O2A        80.1899   54.4719   34.5362 o1         1 CLA     -0.437200
     37 O2D        75.4071   52.8596   36.2808 o1         1 CLA     -0.357600
     38 C3         81.3805   51.6225   36.5527 c5         1 CLA      0.031200
     39 C3A        79.1927   57.1630   36.8372 a1         1 CLA      0.166800
     40 C3B        78.1590   61.0650   41.4419 cb         1 CLA      0.035000
     41 C3C        72.7384   58.4460   42.4954 cb         1 CLA     -0.089900
     42 C3D        73.2203   55.6480   37.1166 cb         1 CLA     -0.035900
     43 C4         80.9703   50.2304   36.8381 a3         1 CLA     -0.053300
     44 C4A        78.3545   57.9140   37.8292 ac         1 CLA      0.001800
     45 C4B        76.9359   60.3485   41.1789 cn         1 CLA     -0.020900
     46 C4C        73.1985   58.0847   41.1945 cr         1 CLA     -0.044400
     47 C4D        74.3739   56.3775   37.4476 c6         1 CLA     -0.046000
     48 C5         82.8030   52.1310   36.7817 a2         1 CLA     -0.070400
     49 C6         83.0440   53.4992   37.5390 a2         1 CLA      0.043900
     50 C7         84.5067   53.6729   37.9448 a2         1 CLA     -0.150000
     51 C8         84.8988   55.0297   38.7197 a1         1 CLA      0.064200
     52 C9         86.4593   55.3659   38.5233 a3         1 CLA     -0.259300
     53 C10        84.4550   55.2100   40.2231 a2         1 CLA     -0.071900
     54 C11        82.9961   55.4010   40.6387 a2         1 CLA      0.014500
     55 C12        82.8964   56.3896   41.7722 a2         1 CLA     -0.112100
     56 C13        81.4970   56.8299   42.1995 a1         1 CLA      0.089200
     57 C14        80.6105   57.3903   41.0789 a3         1 CLA     -0.239100
     58 C15        81.4286   57.5917   43.5715 a2         1 CLA     -0.102200
     59 C16        82.2140   58.9619   43.7513 a2         1 CLA      0.023900
     60 C17        81.9430   59.3744   45.2058 a2         1 CLA     -0.105700
     61 C18        82.5973   60.6889   45.6691 a1         1 CLA      0.206800
     62 C19        81.8599   61.4681   46.8733 a3         1 CLA     -0.280100
     63 C20        84.0864   60.6555   45.9215 a3         1 CLA     -0.280100
     64 NC         74.3986   58.7031   40.9160 nx         1 CLA     -0.309200
     65 MG         75.6650   58.4194   39.1512 mg         1 CLA      0.895000
     66 HMD3       70.7597   54.5879   37.3707 dc         1 CLA      0.064300
     67 HMD2       70.7845   54.6130   39.1478 dc         1 CLA      0.064300
     68 HMD1       70.0886   55.9683   38.2296 dc         1 CLA      0.064300
     69 HMC3       72.6413   60.0806   44.7423 dc         1 CLA      0.052100
     70 HMC2       73.9933   59.0816   45.0880 dc         1 CLA      0.052100
     71 HMC1       74.2197   60.7394   44.3991 dc         1 CLA      0.052100
     72 HMB3       81.0350   60.4960   40.7501 dc         1 CLA      0.063600
     73 HMB2       80.5967   61.2087   39.1982 dc         1 CLA      0.063600
     74 HMB1       80.5338   62.1271   40.9117 dc         1 CLA      0.063600
     75 HMA3       80.8114   56.8476   38.2312 dc         1 CLA      0.058300
     76 HMA2       79.7965   55.3705   37.9338 dc         1 CLA      0.058300
     77 HMA1       81.0474   56.0346   36.7722 dc         1 CLA      0.058300
     78 HED3       75.9003   51.1381   35.1334 dc         1 CLA      0.079300
     79 HED2       77.1784   51.8082   36.1213 dc         1 CLA      0.079300
     80 HED1       75.8797   50.8138   36.8561 dc         1 CLA      0.079300
     81 HBC3       71.5905   55.8544   42.4902 dc         1 CLA      0.016300
     82 HBC2       72.6380   56.1944   44.0334 dc         1 CLA      0.016300
     83 HBC1       70.8293   56.1128   44.1383 dc         1 CLA      0.016300
     84 HBB2       79.5177   62.6585   44.2367 da         1 CLA      0.183000
     85 HBB1       80.4815   61.6848   43.0406 da         1 CLA      0.183000
     86 HBA2       79.2945   57.0596   32.8110 dc         1 CLA      0.029400
     87 HBA1       80.1798   56.8336   34.1681 dc         1 CLA      0.029400
     88 HAC2       71.6031   58.2915   44.3762 dc         1 CLA      0.029300
     89 HAC1       70.5943   58.1610   42.8383 dc         1 CLA      0.029300
     90 HAA2       77.2229   56.3993   34.0457 dc         1 CLA      0.028700
     91 HAA1       78.0109   57.9296   34.5234 dc         1 CLA      0.028700
     92 H203       84.5084   60.3135   44.9882 dc         1 CLA      0.065600
     93 H202       84.4354   61.6551   46.1408 dc         1 CLA      0.065600
     94 H201       84.4736   60.0575   46.6916 dc         1 CLA      0.065600
     95 H193       82.3819   62.4667   46.9346 dc         1 CLA      0.065600
     96 H192       80.8098   61.5963   46.6817 dc         1 CLA      0.065600
     97 H191       82.1277   60.9005   47.7343 dc         1 CLA      0.065600
     98 H172       80.8673   59.4461   45.2083 dc         1 CLA      0.027600
     99 H171       82.1579   58.6004   45.8918 dc         1 CLA      0.027600
    100 H162       83.2613   58.8902   43.4017 dc         1 CLA      0.002900
    101 H161       81.7329   59.7797   43.1646 dc         1 CLA      0.002900
    102 H152       80.3738   57.5785   43.7953 dc         1 CLA      0.029100
    103 H151       82.0372   56.9252   44.2503 dc         1 CLA      0.029100
    104 H143       81.1590   58.1014   40.4887 dc         1 CLA      0.063600
    105 H142       80.2255   56.6577   40.4042 dc         1 CLA      0.063600
    106 H141       79.6419   57.8166   41.4346 dc         1 CLA      0.063600
    107 H122       83.2789   56.0113   42.7047 dc         1 CLA      0.032500
    108 H121       83.4659   57.2972   41.6209 dc         1 CLA      0.032500
    109 H112       82.4427   55.7224   39.6679 dc         1 CLA      0.006600
    110 H111       82.5933   54.4964   40.8946 dc         1 CLA      0.006600
    111 H102       84.9586   54.3618   40.7332 dc         1 CLA      0.024100
    112 H101       84.9709   56.1813   40.5263 dc         1 CLA      0.024100
    113 HHD        71.4780   57.1063   40.4872 da         1 CLA      0.174300
    114 HHC        76.0629   60.8288   42.9332 da         1 CLA      0.136800
    115 HHB        80.0920   59.0335   38.7117 da         1 CLA      0.138300
    116 HBD        74.9435   55.6617   34.5757 dc         1 CLA      0.107700
    117 HAB        77.3795   62.2557   43.1900 da         1 CLA      0.155200
    118 H93        86.9953   54.4483   38.8450 dc         1 CLA      0.069500
    119 H92        86.8144   55.6123   37.5056 dc         1 CLA      0.069500
    120 H91        86.6957   56.1519   39.1855 dc         1 CLA      0.069500
    121 H8         84.3672   55.8577   38.1970 dc         1 CLA      0.029300
    122 H72        84.6779   52.8473   38.5698 dc         1 CLA      0.044400
    123 H71        85.0889   53.5430   37.0020 dc         1 CLA      0.044400
    124 H62        82.7655   54.3414   36.9321 dc         1 CLA      0.015600
    125 H61        82.5273   53.4550   38.4574 dc         1 CLA      0.015600
    126 H52        83.2749   51.4645   37.4195 dc         1 CLA      0.033200
    127 H51        83.2346   52.1114   35.7403 dc         1 CLA      0.033200
    128 H43        81.1856   49.6022   35.9720 dc         1 CLA      0.037000
    129 H42        81.5200   49.9512   37.7413 dc         1 CLA      0.037000
    130 H41        79.8744   50.2554   36.9386 dc         1 CLA      0.037000
    131 H3A        79.7728   57.8820   36.1995 dc         1 CLA      0.041100
    132 H2A        78.3194   55.3458   36.0273 dc         1 CLA      0.083100
    133 H2         80.0063   53.1816   36.7958 da         1 CLA      0.180900
    134 H18        82.5143   61.3557   44.8462 dc         1 CLA     -0.003900
    135 H13        81.0698   55.8675   42.4234 dc         1 CLA      0.019700
    136 H12        79.6294   52.4587   34.2254 dc         1 CLA      0.120400
    137 H11        81.4088   52.7721   34.0690 dc         1 CLA      0.120400
    138 C1         67.9296   60.8751   49.8432 Z1         2 LUT      0.509236
    139 C2         66.5633   60.4586   50.4761 Z2         2 LUT     -0.434695
    140 C3         65.6511   61.5759   50.8044 Z3         2 LUT      0.437453
    141 O3         65.7046   61.8428   52.1630 S1         2 LUT     -0.547129
    142 C4         65.9868   62.8241   50.0270 Z4         2 LUT     -0.468603
    143 C5         66.6999   62.7407   48.8445 Z5         2 LUT      0.279246
    144 C6         67.6747   61.7965   48.6879 Z6         2 LUT     -0.305473
    145 C7         68.0611   61.2439   47.3896 Z7         2 LUT      0.069402
    146 C8         68.8589   61.9019   46.4717 Z8         2 LUT     -0.191631
    147 C9         69.3906   61.3124   45.1674 Z9         2 LUT      0.196698
    148 C10        70.3543   62.0799   44.5442 Y1         2 LUT     -0.208611
    149 C11        71.0435   61.8416   43.3203 Y2         2 LUT      0.030784
    150 C12        71.9947   62.7202   42.9740 Y3         2 LUT     -0.220316
    151 C13        73.0675   62.7088   41.9487 Y4         2 LUT      0.215937
    152 C14        74.1945   63.5511   42.1611 Y5         2 LUT     -0.185793
    153 C15        75.2478   63.6718   41.2807 Y6         2 LUT     -0.057835
    154 C16        68.6970   59.5786   49.5264 Y7         2 LUT     -0.405615
    155 C17        68.7284   61.5026   51.0024 Y7         2 LUT     -0.405615
    156 C18        66.0623   63.4696   47.6310 Y9         2 LUT     -0.369639
    157 C19        68.7813   60.0928   44.6519 W1         2 LUT     -0.333362
    158 C20        72.6618   61.9859   40.7307 W2         2 LUT     -0.323439
    159 C21        86.6713   64.3186   35.3301 Z1         2 LUT      0.406104
    160 C22        87.3286   63.7833   34.0676 Z2         2 LUT     -0.404965
    161 C23        87.7732   64.8537   33.0083 Z3         2 LUT      0.391255
    162 O23        88.5695   64.2753   31.9824 S1         2 LUT     -0.528210
    163 C24        86.5186   65.6689   32.7422 W6         2 LUT     -0.258361
    164 C25        85.4549   65.7583   33.5078 Z5         2 LUT      0.133546
    165 C26        85.2989   64.9156   34.7796 W8         2 LUT     -0.147008
    166 C27        84.4679   65.6149   35.7762 Z7         2 LUT      0.023843
    167 C28        83.4852   65.0514   36.5632 Z8         2 LUT     -0.216987
    168 C29        82.7552   65.6206   37.6842 Z9         2 LUT      0.206524
    169 C30        81.6388   64.9765   38.0213 Y1         2 LUT     -0.215556
    170 C31        80.6898   65.2716   39.0382 Y2         2 LUT      0.025142
    171 C32        79.5103   64.6575   39.2540 Y3         2 LUT     -0.212209
    172 C33        78.6879   64.9664   40.3578 Y4         2 LUT      0.240937
    173 C34        77.4840   64.2276   40.4251 Y5         2 LUT     -0.218862
    174 C35        76.4639   64.3301   41.4330 Y6         2 LUT     -0.023547
    175 C36        87.7121   65.2742   36.0535 Y7         2 LUT     -0.393485
    176 C37        86.6357   63.1759   36.3340 Y7         2 LUT     -0.393485
    177 C38        84.2318   66.4906   32.9646 Y9         2 LUT     -0.387526
    178 C39        83.1912   66.9505   38.2877 W1         2 LUT     -0.322618
    179 C40        78.9636   66.1321   41.2856 W2         2 LUT     -0.358472
    180 H403       78.6914   67.0264   40.6992 R7         2 LUT      0.097720
    181 H402       78.3475   66.2698   42.1238 R7         2 LUT      0.097720
    182 H401       79.9674   66.3869   41.5434 R7         2 LUT      0.097720
    183 H393       83.5665   66.8615   39.2664 R4         2 LUT      0.082505
    184 H392       84.0286   67.4347   37.7078 R4         2 LUT      0.082505
    185 H391       82.3270   67.6334   38.2379 R4         2 LUT      0.082505
    186 H383       84.4271   67.2626   32.2006 R1         2 LUT      0.104030
    187 H382       83.5643   65.7564   32.4442 R1         2 LUT      0.104030
    188 H381       83.5817   66.8752   33.7237 R1         2 LUT      0.104030
    189 H373       87.5188   62.5109   36.3852 T4         2 LUT      0.089537
    190 H372       86.2688   63.5611   37.3319 T4         2 LUT      0.089537
    191 H371       85.8520   62.5609   35.9218 T4         2 LUT      0.089537
    192 H363       87.3772   65.4900   37.0425 T4         2 LUT      0.089537
    193 H362       88.7016   64.7981   36.2205 T4         2 LUT      0.089537
    194 H361       87.9458   66.2596   35.5077 T4         2 LUT      0.089537
    195 H222       88.1715   63.1344   34.3605 U2         2 LUT      0.127376
    196 H221       86.5166   63.1300   33.5683 U2         2 LUT      0.127376
    197 H203       73.4542   61.8948   39.9371 R7         2 LUT      0.087068
    198 H202       72.2776   60.8974   40.9806 R7         2 LUT      0.087068
    199 H201       71.8392   62.5036   40.2836 R7         2 LUT      0.087068
    200 H193       69.2581   59.2076   45.1043 R4         2 LUT      0.089716
    201 H192       67.7066   60.0410   44.9132 R4         2 LUT      0.089716
    202 H191       68.8609   60.1347   43.5463 R4         2 LUT      0.089716
    203 H183       66.1002   62.8331   46.6564 R1         2 LUT      0.094572
    204 H182       64.9927   63.7454   47.6111 R1         2 LUT      0.094572
    205 H181       66.6132   64.4692   47.4367 R1         2 LUT      0.094572
    206 H173       68.2972   62.4772   51.2321 T4         2 LUT      0.093752
    207 H172       68.7017   60.8932   51.9471 T4         2 LUT      0.093752
    208 H171       69.7951   61.6054   50.7460 T4         2 LUT      0.093752
    209 H163       69.0355   59.1507   50.4113 T4         2 LUT      0.093752
    210 H162       68.1394   58.7385   49.1351 T4         2 LUT      0.093752
    211 H161       69.5642   59.6601   48.8953 T4         2 LUT      0.093752
    212 HO3        65.1846   61.1949   52.6485 Q1         2 LUT      0.300121
    213 H8         69.1249   62.9399   46.7094 U7         2 LUT      0.080784
    214 H7         67.8477   60.1866   47.1020 U6         2 LUT      0.042190
    215 H42        65.0225   63.3748   49.8884 U5         2 LUT      0.145166
    216 H41        66.4895   63.5503   50.6718 U5         2 LUT      0.145166
    217 H35        76.5765   64.9532   42.2697 T3         2 LUT      0.077919
    218 H34        77.3355   63.5010   39.6036 T2         2 LUT      0.073626
    219 H32        79.1290   63.9723   38.5683 T1         2 LUT      0.092510
    220 H31        81.1715   65.9850   39.7102 U9         2 LUT      0.070048
    221 H30        81.4496   64.0699   37.4372 U8         2 LUT      0.085442
    222 H3         64.6661   61.2701   50.4815 U3         2 LUT     -0.031596
    223 H28        83.2151   64.0286   36.3554 U7         2 LUT      0.084728
    224 H27        84.8383   66.5943   36.0071 U6         2 LUT      0.087291
    225 H26        84.5213   64.1376   34.5737 Q6         2 LUT      0.075325
    226 H24        86.4731   66.2304   31.8353 Q5         2 LUT      0.094482
    227 H23        88.5122   65.5458   33.5053 U3         2 LUT     -0.024869
    228 H22        65.9555   59.8728   49.7520 U2         2 LUT      0.127376
    229 H21        66.8064   59.7214   51.3326 U2         2 LUT      0.127376
    230 H15        75.1800   63.0216   40.3951 T3         2 LUT      0.093200
    231 H14        74.4203   64.0349   43.1008 T2         2 LUT      0.068865
    232 H12        72.1410   63.5627   43.6308 T1         2 LUT      0.095507
    233 H11        70.8748   60.9078   42.7991 U9         2 LUT      0.068930
    234 H10        70.7207   62.9639   45.0432 U8         2 LUT      0.083911
    235 H1         88.0441   63.6363   31.4449 Q1         2 LUT      0.297311
@<TRIPOS>BOND
    1     6     1 1
    2     7     2 1
    3     8     3 1
    4     9     4 1
    5    11     4 1
    6    12     6 1
    7    13     9 1
    8    16     9 1
    9    25     5 1
   10    25    16 1
   11    26    10 1
   12    26    17 1
   13    27    18 1
   14    28    14 1
   15    28    19 1
   16    29    12 1
   17    30    13 1
   18    31    24 1
   19    32     1 1
   20    32    25 1
   21    33    21 1
   22    33    26 1
   23    34    22 1
   24    34    27 1
   25    35    23 1
   26    35    28 1
   27    36    12 1
   28    36    24 1
   29    37    13 1
   30    37    15 1
   31    38    31 1
   32    39    20 1
   33    39    32 1
   34    40     2 1
   35    40    33 1
   36    41     3 1
   37    41    34 1
   38    42     4 1
   39    42    35 1
   40    43    38 1
   41    44     5 1
   42    44    17 1
   43    44    39 1
   44    45    10 1
   45    45    18 1
   46    45    40 1
   47    46    19 1
   48    46    41 1
   49    47    14 1
   50    47    16 1
   51    47    42 1
   52    48    38 1
   53    49    48 1
   54    50    49 1
   55    51    50 1
   56    52    51 1
   57    53    51 1
   58    54    53 1
   59    55    54 1
   60    56    55 1
   61    57    56 1
   62    58    56 1
   63    59    58 1
   64    60    59 1
   65    61    60 1
   66    62    61 1
   67    63    61 1
   68    64    27 1
   69    64    46 1
   70    65     5 1
   71    65    10 1
   72    65    64 1
   73    65    14 1
   74    66    23 1
   75    67    23 1
   76    68    23 1
   77    69    22 1
   78    70    22 1
   79    71    22 1
   80    72    21 1
   81    73    21 1
   82    74    21 1
   83    75    20 1
   84    76    20 1
   85    77    20 1
   86    78    15 1
   87    79    15 1
   88    80    15 1
   89    81     8 1
   90    82     8 1
   91    83     8 1
   92    84     7 1
   93    85     7 1
   94    86     6 1
   95    87     6 1
   96    88     3 1
   97    89     3 1
   98    90     1 1
   99    91     1 1
  100    92    63 1
  101    93    63 1
  102    94    63 1
  103    95    62 1
  104    96    62 1
  105    97    62 1
  106    98    60 1
  107    99    60 1
  108   100    59 1
  109   101    59 1
  110   102    58 1
  111   103    58 1
  112   104    57 1
  113   105    57 1
  114   106    57 1
  115   107    55 1
  116   108    55 1
  117   109    54 1
  118   110    54 1
  119   111    53 1
  120   112    53 1
  121   113    19 1
  122   114    18 1
  123   115    17 1
  124   116     9 1
  125   117     2 1
  126   118    52 1
  127   119    52 1
  128   120    52 1
  129   121    51 1
  130   122    50 1
  131   123    50 1
  132   124    49 1
  133   125    49 1
  134   126    48 1
  135   127    48 1
  136   128    43 1
  137   129    43 1
  138   130    43 1
  139   131    39 1
  140   132    32 1
  141   133    31 1
  142   134    61 1
  143   135    56 1
  144   136    24 1
  145   137    24 1
  146   139   138 1
  147   140   139 1
  148   141   140 1
  149   142   140 1
  150   143   142 1
  151   144   138 1
  152   144   143 1
  153   145   144 1
  154   146   145 1
  155   147   146 1
  156   148   147 1
  157   149   148 1
  158   150   149 1
  159   151   150 1
  160   152   151 1
  161   153   152 1
  162   154   138 1
  163   155   138 1
  164   156   143 1
  165   157   147 1
  166   158   151 1
  167   160   159 1
  168   161   160 1
  169   162   161 1
  170   163   161 1
  171   164   163 1
  172   165   159 1
  173   165   164 1
  174   166   165 1
  175   167   166 1
  176   168   167 1
  177   169   168 1
  178   170   169 1
  179   171   170 1
  180   172   171 1
  181   173   172 1
  182   174   153 1
  183   174   173 1
  184   175   159 1
  185   176   159 1
  186   177   164 1
  187   178   168 1
  188   179   172 1
  189   180   179 1
  190   181   179 1
  191   182   179 1
  192   183   178 1
  193   184   178 1
  194   185   178 1
  195   186   177 1
  196   187   177 1
  197   188   177 1
  198   189   176 1
  199   190   176 1
  200   191   176 1
  201   192   175 1
  202   193   175 1
  203   194   175 1
  204   195   160 1
  205   196   160 1
  206   197   158 1
  207   198   158 1
  208   199   158 1
  209   200   157 1
  210   201   157 1
  211   202   157 1
  212   203   156 1
  213   204   156 1
  214   205   156 1
  215   206   155 1
  216   207   155 1
  217   208   155 1
  218   209   154 1
  219   210   154 1
  220   211   154 1
  221   212   141 1
  222   213   146 1
  223   214   145 1
  224   215   142 1
  225   216   142 1
  226   217   174 1
  227   218   173 1
  228   219   171 1
  229   220   170 1
  230   221   169 1
  231   222   140 1
  232   223   167 1
  233   224   166 1
  234   225   165 1
  235   226   163 1
  236   227   161 1
  237   228   139 1
  238   229   139 1
  239   230   153 1
  240   231   152 1
  241   232   150 1
  242   233   149 1
  243   234   148 1
  244   235   162 1
  245   65    153 1
  246   65    174 1
@<TRIPOS>SUBSTRUCTURE
      1 CLA               1 ****               0 ****  **** 
      2 LUT             138 ****               0 ****  **** 
