@<TRIPOS>MOLECULE
Cpptraj generated mol2 file.
  235   246     2     0     0
SMALL
USER_CHARGES


@<TRIPOS>ATOM
      1 CAA        78.1582   58.4970   33.6085 a2         1 CLA     -0.055900
      2 CAB        78.5208   61.9794   42.6786 c8         1 CLA     -0.148500
      3 CAC        71.3880   58.0873   42.3517 a2         1 CLA     -0.012600
      4 CAD        73.7082   56.1020   34.8335 ck         1 CLA      0.398800
      5 NA         77.1213   58.6659   37.1347 ns         1 CLA     -0.225500
      6 CBA        79.3647   58.2503   32.6934 a2         1 CLA     -0.135000
      7 CBB        78.2303   61.4219   43.8680 c0         1 CLA     -0.395200
      8 CBC        71.2177   56.5561   42.3732 a3         1 CLA     -0.037700
      9 CBD        75.2229   56.5502   34.5364 a1         1 CLA     -0.053900
     10 NB         77.1495   60.1393   39.7120 nm         1 CLA     -0.295700
     11 OBD        72.9817   55.3729   34.1634 o2         1 CLA     -0.494600
     12 CGA        79.7570   56.8138   32.2601 c4         1 CLA      0.827000
     13 CGD        75.9600   55.2679   34.1116 c4         1 CLA      0.655300
     14 ND         74.3636   57.8145   37.8591 nm         1 CLA     -0.291600
     15 CED        76.2753   52.9047   34.3857 a3         1 CLA      0.005400
     16 CHA        75.6830   57.3586   35.6664 cs         1 CLA     -0.123800
     17 CHB        78.9108   59.9995   38.0894 aa         1 CLA     -0.291900
     18 CHC        75.8520   60.4936   41.7379 aa         1 CLA     -0.090400
     19 CHD        72.5548   57.6938   39.4991 aa         1 CLA     -0.052000
     20 CMA        80.3467   57.8558   36.4597 a3         1 CLA     -0.230700
     21 CMB        80.4819   61.7325   40.1557 a3         1 CLA     -0.180800
     22 CMC        73.5607   59.9948   43.9067 a3         1 CLA     -0.134000
     23 CMD        71.0499   56.0730   37.1601 a3         1 CLA     -0.141100
     24 C1         80.3951   54.7496   33.1205 a2         1 CLA      0.023000
     25 C1A        76.9399   57.9835   35.9154 ac         1 CLA     -0.015100
     26 C1B        78.4003   60.4839   39.2782 cr         1 CLA      0.054700
     27 C1C        74.6339   59.8323   41.5020 cn         1 CLA     -0.005600
     28 C1D        73.0788   57.3900   38.2110 ap         1 CLA     -0.047300
     29 O1A        79.5612   56.3814   31.1510 o2         1 CLA     -0.610800
     30 O1D        76.5584   55.1350   33.0432 o2         1 CLA     -0.558200
     31 C2         80.9304   54.1429   34.4424 c8         1 CLA     -0.325100
     32 C2A        78.2376   57.9407   35.0355 a1         1 CLA      0.098600
     33 C2B        79.0695   61.2810   40.2840 cb         1 CLA      0.088500
     34 C2C        73.5969   59.5320   42.4805 cb         1 CLA      0.053700
     35 C2D        72.4380   56.7701   37.1259 cb         1 CLA      0.058900
     36 O2A        80.2117   56.1452   33.3764 o1         1 CLA     -0.437200
     37 O2D        75.7106   54.1756   34.8971 o1         1 CLA     -0.357600
     38 C3         81.7638   53.0561   34.4186 c5         1 CLA      0.031200
     39 C3A        79.2460   58.7547   35.9000 a1         1 CLA      0.166800
     40 C3B        78.2203   61.3720   41.3821 cb         1 CLA      0.035000
     41 C3C        72.7480   58.5941   41.8529 cb         1 CLA     -0.089900
     42 C3D        73.4478   56.7221   36.1648 cb         1 CLA     -0.035900
     43 C4         81.1052   51.8190   34.8649 a3         1 CLA     -0.053300
     44 C4A        78.3811   59.2039   37.1159 ac         1 CLA      0.001800
     45 C4B        76.9379   60.8117   40.9198 cn         1 CLA     -0.020900
     46 C4C        73.1843   58.4261   40.5060 cr         1 CLA     -0.044400
     47 C4D        74.5873   57.3605   36.6441 c6         1 CLA     -0.046000
     48 C5         83.2887   53.0426   34.3103 a2         1 CLA     -0.070400
     49 C6         83.9738   54.3224   34.8607 a2         1 CLA      0.043900
     50 C7         83.9979   54.4918   36.3856 a2         1 CLA     -0.150000
     51 C8         84.7337   55.8339   36.7858 a1         1 CLA      0.064200
     52 C9         86.2978   55.7475   36.4627 a3         1 CLA     -0.259300
     53 C10        84.7232   56.0720   38.3154 a2         1 CLA     -0.071900
     54 C11        83.2309   56.3368   38.9254 a2         1 CLA      0.014500
     55 C12        83.2569   56.4602   40.4829 a2         1 CLA     -0.112100
     56 C13        81.9421   56.5831   41.3167 a1         1 CLA      0.089200
     57 C14        80.9759   57.4712   40.4975 a3         1 CLA     -0.239100
     58 C15        82.0783   56.9929   42.8055 a2         1 CLA     -0.102200
     59 C16        82.6007   58.3691   43.1062 a2         1 CLA      0.023900
     60 C17        82.2984   58.7262   44.6142 a2         1 CLA     -0.105700
     61 C18        82.8935   60.0776   45.1903 a1         1 CLA      0.206800
     62 C19        84.4809   60.2376   45.3132 a3         1 CLA     -0.280100
     63 C20        82.3739   61.3290   44.4300 a3         1 CLA     -0.280100
     64 NC         74.3152   59.2079   40.3068 nx         1 CLA     -0.309200
     65 MG         75.6665   59.0443   38.7020 mg         1 CLA      0.895000
     66 HMD3       71.0845   55.0386   36.9043 dc         1 CLA      0.064300
     67 HMD2       70.7234   56.0634   38.2043 dc         1 CLA      0.064300
     68 HMD1       70.2551   56.6521   36.6735 dc         1 CLA      0.064300
     69 HMC3       74.4386   59.5210   44.3952 dc         1 CLA      0.052100
     70 HMC2       73.6538   61.1241   43.9526 dc         1 CLA      0.052100
     71 HMC1       72.6330   59.6623   44.3738 dc         1 CLA      0.052100
     72 HMB3       80.3772   62.6911   39.6306 dc         1 CLA      0.063600
     73 HMB2       80.9147   61.9681   41.1155 dc         1 CLA      0.063600
     74 HMB1       81.1351   61.1227   39.5379 dc         1 CLA      0.063600
     75 HMA3       81.1126   58.4961   37.0307 dc         1 CLA      0.058300
     76 HMA2       80.0371   57.1093   37.1679 dc         1 CLA      0.058300
     77 HMA1       80.8104   57.3318   35.6389 dc         1 CLA      0.058300
     78 HED3       75.9138   52.1875   35.1045 dc         1 CLA      0.079300
     79 HED2       75.7693   52.7120   33.3894 dc         1 CLA      0.079300
     80 HED1       77.3901   52.9108   34.4300 dc         1 CLA      0.079300
     81 HBC3       70.1859   56.2167   42.5742 dc         1 CLA      0.016300
     82 HBC2       71.5671   56.1118   41.4339 dc         1 CLA      0.016300
     83 HBC1       71.7366   56.1963   43.2050 dc         1 CLA      0.016300
     84 HBB2       78.4897   62.0704   44.6968 da         1 CLA      0.183000
     85 HBB1       77.6189   60.4931   44.0364 da         1 CLA      0.183000
     86 HBA2       79.2667   59.0129   31.8634 dc         1 CLA      0.029400
     87 HBA1       80.2177   58.5595   33.3177 dc         1 CLA      0.029400
     88 HAC2       71.2543   58.3192   43.4320 dc         1 CLA      0.029300
     89 HAC1       70.5689   58.5140   41.7596 dc         1 CLA      0.029300
     90 HAA2       77.3043   57.8965   33.2203 dc         1 CLA      0.028700
     91 HAA1       77.8859   59.5122   33.6466 dc         1 CLA      0.028700
     92 H203       82.4810   62.2579   45.0490 dc         1 CLA      0.065600
     93 H202       82.9110   61.2552   43.4642 dc         1 CLA      0.065600
     94 H201       81.2888   61.2403   44.2454 dc         1 CLA      0.065600
     95 H193       84.9137   59.3402   45.7564 dc         1 CLA      0.065600
     96 H192       84.9937   60.5132   44.3859 dc         1 CLA      0.065600
     97 H191       84.6813   61.0162   45.9977 dc         1 CLA      0.065600
     98 H172       81.2349   58.8617   44.6502 dc         1 CLA      0.027600
     99 H171       82.6276   57.8553   45.2358 dc         1 CLA      0.027600
    100 H162       83.6445   58.5062   42.8521 dc         1 CLA      0.002900
    101 H161       82.1181   59.0669   42.5055 dc         1 CLA      0.002900
    102 H152       81.1751   56.8241   43.3858 dc         1 CLA      0.029100
    103 H151       82.7983   56.2967   43.2752 dc         1 CLA      0.029100
    104 H143       80.0278   57.6179   41.1525 dc         1 CLA      0.063600
    105 H142       81.4054   58.5448   40.3914 dc         1 CLA      0.063600
    106 H141       80.6650   57.0392   39.5619 dc         1 CLA      0.063600
    107 H122       83.7312   55.5151   40.7346 dc         1 CLA      0.032500
    108 H121       83.8668   57.2939   40.7551 dc         1 CLA      0.032500
    109 H112       82.6254   57.1204   38.4955 dc         1 CLA      0.006600
    110 H111       82.7078   55.3305   38.7901 dc         1 CLA      0.006600
    111 H102       85.2162   55.1510   38.6646 dc         1 CLA      0.024100
    112 H101       85.2136   57.0216   38.5159 dc         1 CLA      0.024100
    113 HHD        71.6380   57.3534   39.7728 da         1 CLA      0.174300
    114 HHC        75.9962   60.8301   42.7705 da         1 CLA      0.136800
    115 HHB        79.8659   60.3330   37.7755 da         1 CLA      0.138300
    116 HBD        75.2441   57.1943   33.6338 dc         1 CLA      0.107700
    117 HAB        79.2053   62.8055   42.6816 da         1 CLA      0.155200
    118 H93        86.6942   54.9248   36.9670 dc         1 CLA      0.069500
    119 H92        86.3933   55.6674   35.3852 dc         1 CLA      0.069500
    120 H91        86.7956   56.6801   36.7678 dc         1 CLA      0.069500
    121 H8         84.2372   56.6761   36.3457 dc         1 CLA      0.029300
    122 H72        82.9718   54.5079   36.8290 dc         1 CLA      0.044400
    123 H71        84.6047   53.6723   36.7475 dc         1 CLA      0.044400
    124 H62        85.0032   54.4383   34.5328 dc         1 CLA      0.015600
    125 H61        83.4890   55.2643   34.5160 dc         1 CLA      0.015600
    126 H52        83.7522   52.1949   34.7750 dc         1 CLA      0.033200
    127 H51        83.5126   53.0439   33.2073 dc         1 CLA      0.033200
    128 H43        80.0187   51.7943   34.8264 dc         1 CLA      0.037000
    129 H42        81.3822   51.0468   34.2055 dc         1 CLA      0.037000
    130 H41        81.4607   51.6390   35.8706 dc         1 CLA      0.037000
    131 H3A        79.6663   59.6365   35.4092 dc         1 CLA      0.041100
    132 H2A        78.5357   56.8377   35.1280 dc         1 CLA      0.083100
    133 H2         80.7083   54.7693   35.2626 da         1 CLA      0.180900
    134 H18        82.5781   60.0963   46.2447 dc         1 CLA     -0.003900
    135 H13        81.4802   55.5733   41.4476 dc         1 CLA      0.019700
    136 H12        79.5533   54.1938   32.9507 dc         1 CLA      0.120400
    137 H11        81.0873   54.5901   32.2808 dc         1 CLA      0.120400
    138 C1         67.8513   62.0155   49.7981 Z1         2 LUT      0.509236
    139 C2         68.0557   63.4759   50.4054 Z2         2 LUT     -0.434695
    140 C3         66.7330   64.2256   50.4809 Z3         2 LUT      0.437453
    141 O3         67.1133   65.5052   50.9524 S1         2 LUT     -0.547129
    142 C4         65.9277   64.1616   49.2483 Z4         2 LUT     -0.468603
    143 C5         66.5977   63.4403   48.1315 Z5         2 LUT      0.279246
    144 C6         67.3883   62.2901   48.3490 Z6         2 LUT     -0.305473
    145 C7         68.1350   61.6569   47.2533 Z7         2 LUT      0.069402
    146 C8         68.9858   62.2453   46.3266 Z8         2 LUT     -0.191631
    147 C9         69.5894   61.7484   45.1100 Z9         2 LUT      0.196698
    148 C10        70.5280   62.5071   44.5205 Y1         2 LUT     -0.208611
    149 C11        71.1972   62.3418   43.2277 Y2         2 LUT      0.030784
    150 C12        72.1776   63.2094   42.7234 Y3         2 LUT     -0.220316
    151 C13        72.9501   63.0868   41.5075 Y4         2 LUT      0.215937
    152 C14        74.0321   63.9246   41.4073 Y5         2 LUT     -0.185793
    153 C15        75.1247   63.7842   40.3975 Y6         2 LUT     -0.057835
    154 C16        66.7196   61.1818   50.5498 Y7         2 LUT     -0.405615
    155 C17        69.1519   61.1655   49.8244 Y7         2 LUT     -0.405615
    156 C18        66.1945   64.1158   46.8618 Y9         2 LUT     -0.369639
    157 C19        69.0374   60.4227   44.5029 W1         2 LUT     -0.333362
    158 C20        72.3333   62.3653   40.2757 W2         2 LUT     -0.323439
    159 C21        86.8387   65.4901   34.5788 Z1         2 LUT      0.406104
    160 C22        87.5626   64.8286   33.3683 Z2         2 LUT     -0.404965
    161 C23        87.6444   65.5580   32.0143 Z3         2 LUT      0.391255
    162 O23        87.6977   64.5513   30.9194 S1         2 LUT     -0.528210
    163 C24        86.4005   66.4647   31.9269 W6         2 LUT     -0.258361
    164 C25        85.3960   66.5534   32.7882 Z5         2 LUT      0.133546
    165 C26        85.3663   65.7263   34.0612 W8         2 LUT     -0.147008
    166 C27        84.5428   66.2877   35.2023 Z7         2 LUT      0.023843
    167 C28        83.2834   65.8417   35.5039 Z8         2 LUT     -0.216987
    168 C29        82.5779   66.2733   36.6669 Z9         2 LUT      0.206524
    169 C30        81.3794   65.6205   36.9345 Y1         2 LUT     -0.215556
    170 C31        80.4914   65.9336   38.0863 Y2         2 LUT      0.025142
    171 C32        79.4029   65.1545   38.2705 Y3         2 LUT     -0.212209
    172 C33        78.4005   65.3641   39.3354 Y4         2 LUT      0.240937
    173 C34        77.3167   64.4700   39.5327 Y5         2 LUT     -0.218862
    174 C35        76.1964   64.5562   40.5082 Y6         2 LUT     -0.023547
    175 C36        87.6440   66.7425   35.0310 Y7         2 LUT     -0.393485
    176 C37        86.8170   64.3627   35.6509 Y7         2 LUT     -0.393485
    177 C38        84.2400   67.5328   32.4503 Y9         2 LUT     -0.387526
    178 C39        83.1473   67.2650   37.6761 W1         2 LUT     -0.322618
    179 C40        78.8909   66.3096   40.3826 W2         2 LUT     -0.358472
    180 H403       78.3670   66.1825   41.4413 R7         2 LUT      0.097720
    181 H402       79.9870   66.1104   40.6329 R7         2 LUT      0.097720
    182 H401       78.8149   67.3233   40.1277 R7         2 LUT      0.097720
    183 H393       82.7612   68.2278   37.4042 R4         2 LUT      0.082505
    184 H392       82.7496   67.0612   38.6495 R4         2 LUT      0.082505
    185 H391       84.1870   67.3279   37.8681 R4         2 LUT      0.082505
    186 H383       83.7866   67.9670   33.3480 R1         2 LUT      0.104030
    187 H382       84.5654   68.4272   31.8370 R1         2 LUT      0.104030
    188 H381       83.4716   66.8883   31.9306 R1         2 LUT      0.104030
    189 H373       86.2029   63.5362   35.1893 T4         2 LUT      0.089537
    190 H372       87.8003   63.9970   35.9328 T4         2 LUT      0.089537
    191 H371       86.3385   64.5681   36.5474 T4         2 LUT      0.089537
    192 H363       87.3443   67.6629   34.4779 T4         2 LUT      0.089537
    193 H362       87.4080   67.0020   36.0942 T4         2 LUT      0.089537
    194 H361       88.7027   66.5779   34.9863 T4         2 LUT      0.089537
    195 H222       88.6194   64.6558   33.6470 U2         2 LUT      0.127376
    196 H221       87.1513   63.8219   33.0892 U2         2 LUT      0.127376
    197 H203       73.0023   62.2251   39.4589 R7         2 LUT      0.087068
    198 H202       72.0018   61.3712   40.5700 R7         2 LUT      0.087068
    199 H201       71.4006   62.7072   39.8808 R7         2 LUT      0.087068
    200 H193       69.7874   59.6640   44.6972 R4         2 LUT      0.089716
    201 H192       68.1591   60.1326   44.9057 R4         2 LUT      0.089716
    202 H191       68.8050   60.3961   43.4143 R4         2 LUT      0.089716
    203 H183       66.6021   65.1177   46.7019 R1         2 LUT      0.094572
    204 H182       66.4463   63.3594   46.0911 R1         2 LUT      0.094572
    205 H181       65.0704   64.1795   46.9146 R1         2 LUT      0.094572
    206 H173       69.3440   60.8040   50.8585 T4         2 LUT      0.093752
    207 H172       69.1077   60.2891   49.2076 T4         2 LUT      0.093752
    208 H171       70.0101   61.7809   49.5443 T4         2 LUT      0.093752
    209 H163       65.6627   61.4902   50.4484 T4         2 LUT      0.093752
    210 H162       66.8271   60.1182   50.2276 T4         2 LUT      0.093752
    211 H161       66.8816   61.1677   51.6312 T4         2 LUT      0.093752
    212 HO3        66.3606   65.9977   51.3840 Q1         2 LUT      0.300121
    213 H8         69.2229   63.3595   46.4764 U7         2 LUT      0.080784
    214 H7         67.8163   60.6044   47.0602 U6         2 LUT      0.042190
    215 H42        64.9076   63.7913   49.3673 U5         2 LUT      0.145166
    216 H41        65.6899   65.2124   49.0170 U5         2 LUT      0.145166
    217 H35        76.4541   65.3172   41.2768 T3         2 LUT      0.077919
    218 H34        77.2064   63.5364   39.0127 T2         2 LUT      0.073626
    219 H32        79.1948   64.3841   37.5508 T1         2 LUT      0.092510
    220 H31        80.7288   66.8201   38.6275 U9         2 LUT      0.070048
    221 H30        81.1071   64.8486   36.2212 U8         2 LUT      0.085442
    222 H3         66.1928   63.7453   51.2536 U3         2 LUT     -0.031596
    223 H28        82.8343   65.1011   34.8892 U7         2 LUT      0.084728
    224 H27        84.9862   67.0684   35.7810 U6         2 LUT      0.087291
    225 H26        84.9787   64.7846   33.7410 Q6         2 LUT      0.075325
    226 H24        86.4095   67.0888   30.9960 Q5         2 LUT      0.094482
    227 H23        88.4509   66.2551   32.0649 U3         2 LUT     -0.024869
    228 H22        68.3115   63.5343   51.4946 U2         2 LUT      0.127376
    229 H21        68.6521   64.2543   49.8682 U2         2 LUT      0.127376
    230 H15        75.1139   62.9895   39.7228 T3         2 LUT      0.093200
    231 H14        74.2545   64.6476   42.1542 T2         2 LUT      0.068865
    232 H12        72.5260   64.0455   43.3090 T1         2 LUT      0.095507
    233 H11        70.9422   61.5373   42.5989 U9         2 LUT      0.068930
    234 H10        70.8005   63.4179   44.9600 U8         2 LUT      0.083911
    235 H1         87.5253   64.8076   29.9853 Q1         2 LUT      0.297311
@<TRIPOS>BOND
    1     6     1 1
    2     7     2 1
    3     8     3 1
    4     9     4 1
    5    11     4 1
    6    12     6 1
    7    13     9 1
    8    16     9 1
    9    25     5 1
   10    25    16 1
   11    26    10 1
   12    26    17 1
   13    27    18 1
   14    28    14 1
   15    28    19 1
   16    29    12 1
   17    30    13 1
   18    31    24 1
   19    32     1 1
   20    32    25 1
   21    33    21 1
   22    33    26 1
   23    34    22 1
   24    34    27 1
   25    35    23 1
   26    35    28 1
   27    36    12 1
   28    36    24 1
   29    37    13 1
   30    37    15 1
   31    38    31 1
   32    39    20 1
   33    39    32 1
   34    40     2 1
   35    40    33 1
   36    41     3 1
   37    41    34 1
   38    42     4 1
   39    42    35 1
   40    43    38 1
   41    44     5 1
   42    44    17 1
   43    44    39 1
   44    45    10 1
   45    45    18 1
   46    45    40 1
   47    46    19 1
   48    46    41 1
   49    47    14 1
   50    47    16 1
   51    47    42 1
   52    48    38 1
   53    49    48 1
   54    50    49 1
   55    51    50 1
   56    52    51 1
   57    53    51 1
   58    54    53 1
   59    55    54 1
   60    56    55 1
   61    57    56 1
   62    58    56 1
   63    59    58 1
   64    60    59 1
   65    61    60 1
   66    62    61 1
   67    63    61 1
   68    64    27 1
   69    64    46 1
   70    65     5 1
   71    65    10 1
   72    65    64 1
   73    65    14 1
   74    66    23 1
   75    67    23 1
   76    68    23 1
   77    69    22 1
   78    70    22 1
   79    71    22 1
   80    72    21 1
   81    73    21 1
   82    74    21 1
   83    75    20 1
   84    76    20 1
   85    77    20 1
   86    78    15 1
   87    79    15 1
   88    80    15 1
   89    81     8 1
   90    82     8 1
   91    83     8 1
   92    84     7 1
   93    85     7 1
   94    86     6 1
   95    87     6 1
   96    88     3 1
   97    89     3 1
   98    90     1 1
   99    91     1 1
  100    92    63 1
  101    93    63 1
  102    94    63 1
  103    95    62 1
  104    96    62 1
  105    97    62 1
  106    98    60 1
  107    99    60 1
  108   100    59 1
  109   101    59 1
  110   102    58 1
  111   103    58 1
  112   104    57 1
  113   105    57 1
  114   106    57 1
  115   107    55 1
  116   108    55 1
  117   109    54 1
  118   110    54 1
  119   111    53 1
  120   112    53 1
  121   113    19 1
  122   114    18 1
  123   115    17 1
  124   116     9 1
  125   117     2 1
  126   118    52 1
  127   119    52 1
  128   120    52 1
  129   121    51 1
  130   122    50 1
  131   123    50 1
  132   124    49 1
  133   125    49 1
  134   126    48 1
  135   127    48 1
  136   128    43 1
  137   129    43 1
  138   130    43 1
  139   131    39 1
  140   132    32 1
  141   133    31 1
  142   134    61 1
  143   135    56 1
  144   136    24 1
  145   137    24 1
  146   139   138 1
  147   140   139 1
  148   141   140 1
  149   142   140 1
  150   143   142 1
  151   144   138 1
  152   144   143 1
  153   145   144 1
  154   146   145 1
  155   147   146 1
  156   148   147 1
  157   149   148 1
  158   150   149 1
  159   151   150 1
  160   152   151 1
  161   153   152 1
  162   154   138 1
  163   155   138 1
  164   156   143 1
  165   157   147 1
  166   158   151 1
  167   160   159 1
  168   161   160 1
  169   162   161 1
  170   163   161 1
  171   164   163 1
  172   165   159 1
  173   165   164 1
  174   166   165 1
  175   167   166 1
  176   168   167 1
  177   169   168 1
  178   170   169 1
  179   171   170 1
  180   172   171 1
  181   173   172 1
  182   174   153 1
  183   174   173 1
  184   175   159 1
  185   176   159 1
  186   177   164 1
  187   178   168 1
  188   179   172 1
  189   180   179 1
  190   181   179 1
  191   182   179 1
  192   183   178 1
  193   184   178 1
  194   185   178 1
  195   186   177 1
  196   187   177 1
  197   188   177 1
  198   189   176 1
  199   190   176 1
  200   191   176 1
  201   192   175 1
  202   193   175 1
  203   194   175 1
  204   195   160 1
  205   196   160 1
  206   197   158 1
  207   198   158 1
  208   199   158 1
  209   200   157 1
  210   201   157 1
  211   202   157 1
  212   203   156 1
  213   204   156 1
  214   205   156 1
  215   206   155 1
  216   207   155 1
  217   208   155 1
  218   209   154 1
  219   210   154 1
  220   211   154 1
  221   212   141 1
  222   213   146 1
  223   214   145 1
  224   215   142 1
  225   216   142 1
  226   217   174 1
  227   218   173 1
  228   219   171 1
  229   220   170 1
  230   221   169 1
  231   222   140 1
  232   223   167 1
  233   224   166 1
  234   225   165 1
  235   226   163 1
  236   227   161 1
  237   228   139 1
  238   229   139 1
  239   230   153 1
  240   231   152 1
  241   232   150 1
  242   233   149 1
  243   234   148 1
  244   235   162 1
  245   65    153 1
  246   65    174 1
@<TRIPOS>SUBSTRUCTURE
      1 CLA               1 ****               0 ****  **** 
      2 LUT             138 ****               0 ****  **** 
