@<TRIPOS>MOLECULE
Cpptraj generated mol2 file.
  235   246     2     0     0
SMALL
USER_CHARGES


@<TRIPOS>ATOM
      1 CAA        76.5475   57.9860   33.1603 a2         1 CLA     -0.055900
      2 CAB        76.8041   61.3308   42.3338 c8         1 CLA     -0.148500
      3 CAC        69.9306   57.5261   41.8713 a2         1 CLA     -0.012600
      4 CAD        72.3552   55.2995   34.6155 ck         1 CLA      0.398800
      5 NA         75.5745   58.4110   36.5063 ns         1 CLA     -0.225500
      6 CBA        77.8358   57.7122   32.3209 a2         1 CLA     -0.135000
      7 CBB        77.9587   61.5461   43.0306 c0         1 CLA     -0.395200
      8 CBC        70.2926   56.0377   42.1739 a3         1 CLA     -0.037700
      9 CBD        73.8420   55.8593   34.2660 a1         1 CLA     -0.053900
     10 NB         75.6331   59.7667   39.2640 nm         1 CLA     -0.295700
     11 OBD        71.6798   54.5191   33.9451 o2         1 CLA     -0.494600
     12 CGA        78.3570   56.2576   32.1107 c4         1 CLA      0.827000
     13 CGD        74.8725   54.7307   34.2038 c4         1 CLA      0.655300
     14 ND         72.7706   57.5152   37.3530 nm         1 CLA     -0.291600
     15 CED        75.7368   52.7709   35.3522 a3         1 CLA      0.005400
     16 CHA        74.2236   56.7837   35.3283 cs         1 CLA     -0.123800
     17 CHB        77.4579   59.6327   37.5870 aa         1 CLA     -0.291900
     18 CHC        74.4342   59.6862   41.3974 aa         1 CLA     -0.090400
     19 CHD        70.8488   57.5267   38.9335 aa         1 CLA     -0.052000
     20 CMA        78.8413   57.3995   36.1160 a3         1 CLA     -0.230700
     21 CMB        78.9971   61.2191   39.8920 a3         1 CLA     -0.180800
     22 CMC        72.1686   59.2457   43.4639 a3         1 CLA     -0.134000
     23 CMD        69.6167   55.3942   36.8518 a3         1 CLA     -0.141100
     24 C1         79.5035   54.4254   33.2560 a2         1 CLA      0.023000
     25 C1A        75.4333   57.5539   35.4411 ac         1 CLA     -0.015100
     26 C1B        76.9163   60.0499   38.8532 cr         1 CLA      0.054700
     27 C1C        73.1761   59.1522   41.1176 cn         1 CLA     -0.005600
     28 C1D        71.4115   57.1512   37.6895 ap         1 CLA     -0.047300
     29 O1A        78.1373   55.5614   31.1364 o2         1 CLA     -0.610800
     30 O1D        75.5947   54.4950   33.2291 o2         1 CLA     -0.558200
     31 C2         80.0457   54.0154   34.6195 c8         1 CLA     -0.325100
     32 C2A        76.7129   57.5047   34.5733 a1         1 CLA      0.098600
     33 C2B        77.6444   60.6366   39.9618 cb         1 CLA      0.088500
     34 C2C        72.0579   58.9333   42.0062 cb         1 CLA      0.053700
     35 C2D        70.9202   56.2018   36.7216 cb         1 CLA      0.058900
     36 O2A        79.1543   55.7993   33.1397 o1         1 CLA     -0.437200
     37 O2D        74.8052   53.9348   35.2892 o1         1 CLA     -0.357600
     38 C3         80.7371   52.8747   34.7642 c5         1 CLA      0.031200
     39 C3A        77.7192   58.2768   35.4991 a1         1 CLA      0.166800
     40 C3B        76.7402   60.7176   40.9802 cb         1 CLA      0.035000
     41 C3C        71.0692   58.2585   41.2890 cb         1 CLA     -0.089900
     42 C3D        71.9720   56.0449   35.7651 cb         1 CLA     -0.035900
     43 C4         80.1111   51.5596   35.1062 a3         1 CLA     -0.053300
     44 C4A        76.8888   58.8283   36.6019 ac         1 CLA      0.001800
     45 C4B        75.5898   59.9840   40.5741 cn         1 CLA     -0.020900
     46 C4C        71.5120   58.2233   39.9521 cr         1 CLA     -0.044400
     47 C4D        73.1017   56.8801   36.2086 c6         1 CLA     -0.046000
     48 C5         82.2496   52.8201   34.5477 a2         1 CLA     -0.070400
     49 C6         83.0126   54.0844   34.7002 a2         1 CLA      0.043900
     50 C7         83.1334   54.4892   36.1302 a2         1 CLA     -0.150000
     51 C8         83.4465   56.0317   36.2755 a1         1 CLA      0.064200
     52 C9         84.8424   56.3528   35.6256 a3         1 CLA     -0.259300
     53 C10        83.4564   56.4807   37.7524 a2         1 CLA     -0.071900
     54 C11        82.1834   56.2775   38.5051 a2         1 CLA      0.014500
     55 C12        82.2418   56.9559   39.8627 a2         1 CLA     -0.112100
     56 C13        81.0111   56.8045   40.8377 a1         1 CLA      0.089200
     57 C14        79.7570   57.3173   40.1417 a3         1 CLA     -0.239100
     58 C15        81.2693   57.4241   42.2316 a2         1 CLA     -0.102200
     59 C16        81.2969   58.9710   42.4075 a2         1 CLA      0.023900
     60 C17        81.5861   59.2289   43.8963 a2         1 CLA     -0.105700
     61 C18        82.2605   60.5952   44.1389 a1         1 CLA      0.206800
     62 C19        83.6457   60.7274   43.3922 a3         1 CLA     -0.280100
     63 C20        81.3549   61.8410   44.0016 a3         1 CLA     -0.280100
     64 NC         72.8012   58.7504   39.8379 nx         1 CLA     -0.309200
     65 MG         74.0622   58.7137   38.1856 mg         1 CLA      0.895000
     66 HMD3       69.6515   54.7257   35.9218 dc         1 CLA      0.064300
     67 HMD2       69.7356   54.7536   37.7698 dc         1 CLA      0.064300
     68 HMD1       68.8383   56.1670   36.8169 dc         1 CLA      0.064300
     69 HMC3       71.9839   60.3118   43.6257 dc         1 CLA      0.052100
     70 HMC2       71.3689   58.7065   43.9547 dc         1 CLA      0.052100
     71 HMC1       73.1358   59.0593   43.8607 dc         1 CLA      0.052100
     72 HMB3       79.2215   61.5114   38.8583 dc         1 CLA      0.063600
     73 HMB2       79.1857   62.0493   40.5788 dc         1 CLA      0.063600
     74 HMB1       79.6259   60.3582   40.1386 dc         1 CLA      0.063600
     75 HMA3       79.4324   57.2650   35.2706 dc         1 CLA      0.058300
     76 HMA2       79.4020   57.9152   36.8484 dc         1 CLA      0.058300
     77 HMA1       78.5436   56.4148   36.5876 dc         1 CLA      0.058300
     78 HED3       75.6434   52.2126   36.2548 dc         1 CLA      0.079300
     79 HED2       75.5493   52.2609   34.4144 dc         1 CLA      0.079300
     80 HED1       76.7694   53.2271   35.2957 dc         1 CLA      0.079300
     81 HBC3       69.3536   55.5600   42.5430 dc         1 CLA      0.016300
     82 HBC2       70.3736   55.5047   41.2109 dc         1 CLA      0.016300
     83 HBC1       71.2240   55.9491   42.6568 dc         1 CLA      0.016300
     84 HBB2       77.9632   62.1749   43.9355 da         1 CLA      0.183000
     85 HBB1       78.9648   61.1251   42.7324 da         1 CLA      0.183000
     86 HBA2       77.7827   58.0818   31.3016 dc         1 CLA      0.029400
     87 HBA1       78.6841   58.3177   32.6078 dc         1 CLA      0.029400
     88 HAC2       69.5955   57.8890   42.8449 dc         1 CLA      0.029300
     89 HAC1       69.1095   57.5032   41.2228 dc         1 CLA      0.029300
     90 HAA2       75.6858   57.4750   32.8217 dc         1 CLA      0.028700
     91 HAA1       76.4455   59.0860   33.0725 dc         1 CLA      0.028700
     92 H203       81.8748   62.6975   44.2902 dc         1 CLA      0.065600
     93 H202       81.1671   61.9074   42.9251 dc         1 CLA      0.065600
     94 H201       80.3516   61.7160   44.4674 dc         1 CLA      0.065600
     95 H193       84.1114   61.5963   43.7694 dc         1 CLA      0.065600
     96 H192       84.3844   59.9417   43.6945 dc         1 CLA      0.065600
     97 H191       83.4537   60.8455   42.3447 dc         1 CLA      0.065600
     98 H172       80.6536   59.2094   44.5069 dc         1 CLA      0.027600
     99 H171       82.2798   58.5260   44.2854 dc         1 CLA      0.027600
    100 H162       81.9625   59.2934   41.6407 dc         1 CLA      0.002900
    101 H161       80.3377   59.2999   42.2108 dc         1 CLA      0.002900
    102 H152       80.5471   57.0529   42.9071 dc         1 CLA      0.029100
    103 H151       82.3007   57.1228   42.3918 dc         1 CLA      0.029100
    104 H143       78.9176   57.6278   40.7670 dc         1 CLA      0.063600
    105 H142       79.9740   58.0734   39.4538 dc         1 CLA      0.063600
    106 H141       79.4224   56.5540   39.4342 dc         1 CLA      0.063600
    107 H122       83.1330   56.6506   40.3988 dc         1 CLA      0.032500
    108 H121       82.4353   58.0805   39.7145 dc         1 CLA      0.032500
    109 H112       81.4003   56.7508   37.8258 dc         1 CLA      0.006600
    110 H111       81.8808   55.2638   38.6839 dc         1 CLA      0.006600
    111 H102       84.2444   56.0840   38.3875 dc         1 CLA      0.024100
    112 H101       83.7261   57.5368   37.7037 dc         1 CLA      0.024100
    113 HHD        69.8625   57.0773   39.1515 da         1 CLA      0.174300
    114 HHC        74.6068   59.9394   42.4170 da         1 CLA      0.136800
    115 HHB        78.5201   59.8574   37.6539 da         1 CLA      0.138300
    116 HBD        73.7779   56.4145   33.3639 dc         1 CLA      0.107700
    117 HAB        75.9710   61.7996   42.7293 da         1 CLA      0.155200
    118 H93        85.0343   55.8030   34.6664 dc         1 CLA      0.069500
    119 H92        84.8971   57.4332   35.4405 dc         1 CLA      0.069500
    120 H91        85.4712   56.0248   36.3694 dc         1 CLA      0.069500
    121 H8         82.6600   56.5551   35.7081 dc         1 CLA      0.029300
    122 H72        82.1384   54.2431   36.6037 dc         1 CLA      0.044400
    123 H71        83.8440   54.0175   36.7775 dc         1 CLA      0.044400
    124 H62        83.9700   53.8663   34.2854 dc         1 CLA      0.015600
    125 H61        82.5116   54.8710   34.0818 dc         1 CLA      0.015600
    126 H52        82.5990   52.2327   35.3134 dc         1 CLA      0.033200
    127 H51        82.3640   52.3747   33.5300 dc         1 CLA      0.033200
    128 H43        79.0289   51.5816   34.9326 dc         1 CLA      0.037000
    129 H42        80.4690   50.7341   34.4790 dc         1 CLA      0.037000
    130 H41        80.4156   51.2439   36.1417 dc         1 CLA      0.037000
    131 H3A        78.0983   59.0834   34.8646 dc         1 CLA      0.041100
    132 H2A        77.0601   56.4997   34.5076 dc         1 CLA      0.083100
    133 H2         79.8309   54.5965   35.4946 da         1 CLA      0.180900
    134 H18        82.4659   60.6545   45.1622 dc         1 CLA     -0.003900
    135 H13        80.8272   55.7578   41.0654 dc         1 CLA      0.019700
    136 H12        78.6437   53.8709   33.0024 dc         1 CLA      0.120400
    137 H11        80.3611   54.2576   32.5899 dc         1 CLA      0.120400
    138 C1         67.1525   61.7043   49.7893 Z1         2 LUT      0.509236
    139 C2         67.0445   62.7067   50.8925 Z2         2 LUT     -0.434695
    140 C3         65.7103   63.4922   51.0982 Z3         2 LUT      0.437453
    141 O3         66.1565   64.8122   51.4517 S1         2 LUT     -0.547129
    142 C4         65.0258   63.5602   49.7875 Z4         2 LUT     -0.468603
    143 C5         65.8027   63.2263   48.5096 Z5         2 LUT      0.279246
    144 C6         66.6963   62.2357   48.4809 Z6         2 LUT     -0.305473
    145 C7         67.4521   61.8596   47.2907 Z7         2 LUT      0.069402
    146 C8         68.3308   62.5052   46.3917 Z8         2 LUT     -0.191631
    147 C9         68.7217   62.0619   45.0812 Z9         2 LUT      0.196698
    148 C10        69.7803   62.7035   44.4668 Y1         2 LUT     -0.208611
    149 C11        70.3336   62.5248   43.0861 Y2         2 LUT      0.030784
    150 C12        71.5338   63.0160   42.7607 Y3         2 LUT     -0.220316
    151 C13        72.3424   62.8001   41.5405 Y4         2 LUT      0.215937
    152 C14        73.6194   63.3000   41.5830 Y5         2 LUT     -0.185793
    153 C15        74.6091   63.3392   40.5264 Y6         2 LUT     -0.057835
    154 C16        66.1330   60.6089   50.1195 Y7         2 LUT     -0.405615
    155 C17        68.5454   61.1380   49.7293 Y7         2 LUT     -0.405615
    156 C18        65.2858   64.0360   47.4585 Y9         2 LUT     -0.369639
    157 C19        67.8555   61.0333   44.3174 W1         2 LUT     -0.333362
    158 C20        71.6150   62.3675   40.2632 W2         2 LUT     -0.323439
    159 C21        85.7038   64.1575   33.6382 Z1         2 LUT      0.406104
    160 C22        86.4421   63.7284   32.4270 Z2         2 LUT     -0.404965
    161 C23        86.6010   64.8456   31.4138 Z3         2 LUT      0.391255
    162 O23        87.3936   64.3819   30.2527 S1         2 LUT     -0.528210
    163 C24        85.3001   65.5438   31.1310 W6         2 LUT     -0.258361
    164 C25        84.2062   65.5494   31.9870 Z5         2 LUT      0.133546
    165 C26        84.2680   64.8031   33.2570 W8         2 LUT     -0.147008
    166 C27        83.5753   65.3445   34.4673 Z7         2 LUT      0.023843
    167 C28        82.4375   64.9785   35.0497 Z8         2 LUT     -0.216987
    168 C29        81.8781   65.4343   36.3221 Z9         2 LUT      0.206524
    169 C30        80.6727   65.0113   36.7237 Y1         2 LUT     -0.215556
    170 C31        80.0844   65.2550   38.0450 Y2         2 LUT      0.025142
    171 C32        78.8370   64.6893   38.3344 Y3         2 LUT     -0.212209
    172 C33        77.9512   64.6960   39.5296 Y4         2 LUT      0.240937
    173 C34        76.7805   63.9388   39.5100 Y5         2 LUT     -0.218862
    174 C35        75.8603   63.8108   40.6165 Y6         2 LUT     -0.023547
    175 C36        86.6229   65.0981   34.5367 Y7         2 LUT     -0.393485
    176 C37        85.3987   62.9107   34.4436 Y7         2 LUT     -0.393485
    177 C38        83.0077   66.3722   31.6580 Y9         2 LUT     -0.387526
    178 C39        82.5962   66.3806   37.1857 W1         2 LUT     -0.322618
    179 C40        78.4255   65.4431   40.7762 W2         2 LUT     -0.358472
    180 H403       78.8749   66.4035   40.4565 R7         2 LUT      0.097720
    181 H402       77.6875   65.6873   41.5263 R7         2 LUT      0.097720
    182 H401       79.1860   64.8523   41.3223 R7         2 LUT      0.097720
    183 H393       81.9186   67.1676   37.4441 R4         2 LUT      0.082505
    184 H392       82.6811   65.9490   38.1432 R4         2 LUT      0.082505
    185 H391       83.5399   66.7791   36.8852 R4         2 LUT      0.082505
    186 H383       82.6166   67.1325   32.4616 R1         2 LUT      0.104030
    187 H382       83.1452   66.8270   30.7213 R1         2 LUT      0.104030
    188 H381       82.1120   65.6861   31.6061 R1         2 LUT      0.104030
    189 H373       84.8656   62.1699   33.8657 T4         2 LUT      0.089537
    190 H372       86.3735   62.5166   34.7022 T4         2 LUT      0.089537
    191 H371       84.9408   63.1416   35.3781 T4         2 LUT      0.089537
    192 H363       87.4681   64.6029   34.9195 T4         2 LUT      0.089537
    193 H362       86.9029   65.9940   33.9686 T4         2 LUT      0.089537
    194 H361       86.0664   65.3586   35.4159 T4         2 LUT      0.089537
    195 H222       87.4573   63.3940   32.7194 U2         2 LUT      0.127376
    196 H221       85.9136   62.9568   31.9466 U2         2 LUT      0.127376
    197 H203       72.2891   62.3785   39.4601 R7         2 LUT      0.087068
    198 H202       71.1620   61.3914   40.3397 R7         2 LUT      0.087068
    199 H201       70.7954   63.0506   39.9701 R7         2 LUT      0.087068
    200 H193       68.0844   59.9840   44.5710 R4         2 LUT      0.089716
    201 H192       66.7948   61.1552   44.4500 R4         2 LUT      0.089716
    202 H191       67.8403   61.0403   43.2822 R4         2 LUT      0.089716
    203 H183       64.2629   64.3340   47.6316 R1         2 LUT      0.094572
    204 H182       65.8410   64.9940   47.3044 R1         2 LUT      0.094572
    205 H181       65.3328   63.4438   46.5193 R1         2 LUT      0.094572
    206 H173       69.2689   61.9889   49.4230 T4         2 LUT      0.093752
    207 H172       68.9382   60.7035   50.6641 T4         2 LUT      0.093752
    208 H171       68.5947   60.3134   49.0401 T4         2 LUT      0.093752
    209 H163       66.4480   60.1770   51.1030 T4         2 LUT      0.093752
    210 H162       65.1147   60.9841   50.0478 T4         2 LUT      0.093752
    211 H161       66.2299   59.7587   49.5363 T4         2 LUT      0.093752
    212 HO3        65.6549   65.2955   52.0545 Q1         2 LUT      0.300121
    213 H8         68.5486   63.4608   46.7727 U7         2 LUT      0.080784
    214 H7         67.2011   60.8108   46.9957 U6         2 LUT      0.042190
    215 H42        64.0593   63.0769   49.8088 U5         2 LUT      0.145166
    216 H41        64.5955   64.5448   49.6078 U5         2 LUT      0.145166
    217 H35        76.1025   64.2190   41.6175 T3         2 LUT      0.077919
    218 H34        76.5604   63.3411   38.6486 T2         2 LUT      0.073626
    219 H32        78.5157   64.0465   37.5202 T1         2 LUT      0.092510
    220 H31        80.5708   65.8490   38.7738 U9         2 LUT      0.070048
    221 H30        80.0980   64.2670   36.0821 U8         2 LUT      0.085442
    222 H3         65.1620   62.8815   51.9009 U3         2 LUT     -0.031596
    223 H28        81.6532   64.3932   34.5137 U7         2 LUT      0.084728
    224 H27        84.1624   66.1011   34.9744 U6         2 LUT      0.087291
    225 H26        83.7280   63.8848   32.9363 Q6         2 LUT      0.075325
    226 H24        85.0820   66.0033   30.2208 Q5         2 LUT      0.094482
    227 H23        87.4828   65.4331   31.8369 U3         2 LUT     -0.024869
    228 H22        67.2220   62.2982   51.8620 U2         2 LUT      0.127376
    229 H21        67.8814   63.4570   50.7090 U2         2 LUT      0.127376
    230 H15        74.3511   63.0038   39.5544 T3         2 LUT      0.093200
    231 H14        73.8942   63.7463   42.5023 T2         2 LUT      0.068865
    232 H12        72.0734   63.6653   43.4938 T1         2 LUT      0.095507
    233 H11        69.8864   61.8737   42.3297 U9         2 LUT      0.068930
    234 H10        70.2430   63.5044   44.9998 U8         2 LUT      0.083911
    235 H1         86.9347   63.9666   29.4929 Q1         2 LUT      0.297311
@<TRIPOS>BOND
    1     6     1 1
    2     7     2 1
    3     8     3 1
    4     9     4 1
    5    11     4 1
    6    12     6 1
    7    13     9 1
    8    16     9 1
    9    25     5 1
   10    25    16 1
   11    26    10 1
   12    26    17 1
   13    27    18 1
   14    28    14 1
   15    28    19 1
   16    29    12 1
   17    30    13 1
   18    31    24 1
   19    32     1 1
   20    32    25 1
   21    33    21 1
   22    33    26 1
   23    34    22 1
   24    34    27 1
   25    35    23 1
   26    35    28 1
   27    36    12 1
   28    36    24 1
   29    37    13 1
   30    37    15 1
   31    38    31 1
   32    39    20 1
   33    39    32 1
   34    40     2 1
   35    40    33 1
   36    41     3 1
   37    41    34 1
   38    42     4 1
   39    42    35 1
   40    43    38 1
   41    44     5 1
   42    44    17 1
   43    44    39 1
   44    45    10 1
   45    45    18 1
   46    45    40 1
   47    46    19 1
   48    46    41 1
   49    47    14 1
   50    47    16 1
   51    47    42 1
   52    48    38 1
   53    49    48 1
   54    50    49 1
   55    51    50 1
   56    52    51 1
   57    53    51 1
   58    54    53 1
   59    55    54 1
   60    56    55 1
   61    57    56 1
   62    58    56 1
   63    59    58 1
   64    60    59 1
   65    61    60 1
   66    62    61 1
   67    63    61 1
   68    64    27 1
   69    64    46 1
   70    65     5 1
   71    65    10 1
   72    65    64 1
   73    65    14 1
   74    66    23 1
   75    67    23 1
   76    68    23 1
   77    69    22 1
   78    70    22 1
   79    71    22 1
   80    72    21 1
   81    73    21 1
   82    74    21 1
   83    75    20 1
   84    76    20 1
   85    77    20 1
   86    78    15 1
   87    79    15 1
   88    80    15 1
   89    81     8 1
   90    82     8 1
   91    83     8 1
   92    84     7 1
   93    85     7 1
   94    86     6 1
   95    87     6 1
   96    88     3 1
   97    89     3 1
   98    90     1 1
   99    91     1 1
  100    92    63 1
  101    93    63 1
  102    94    63 1
  103    95    62 1
  104    96    62 1
  105    97    62 1
  106    98    60 1
  107    99    60 1
  108   100    59 1
  109   101    59 1
  110   102    58 1
  111   103    58 1
  112   104    57 1
  113   105    57 1
  114   106    57 1
  115   107    55 1
  116   108    55 1
  117   109    54 1
  118   110    54 1
  119   111    53 1
  120   112    53 1
  121   113    19 1
  122   114    18 1
  123   115    17 1
  124   116     9 1
  125   117     2 1
  126   118    52 1
  127   119    52 1
  128   120    52 1
  129   121    51 1
  130   122    50 1
  131   123    50 1
  132   124    49 1
  133   125    49 1
  134   126    48 1
  135   127    48 1
  136   128    43 1
  137   129    43 1
  138   130    43 1
  139   131    39 1
  140   132    32 1
  141   133    31 1
  142   134    61 1
  143   135    56 1
  144   136    24 1
  145   137    24 1
  146   139   138 1
  147   140   139 1
  148   141   140 1
  149   142   140 1
  150   143   142 1
  151   144   138 1
  152   144   143 1
  153   145   144 1
  154   146   145 1
  155   147   146 1
  156   148   147 1
  157   149   148 1
  158   150   149 1
  159   151   150 1
  160   152   151 1
  161   153   152 1
  162   154   138 1
  163   155   138 1
  164   156   143 1
  165   157   147 1
  166   158   151 1
  167   160   159 1
  168   161   160 1
  169   162   161 1
  170   163   161 1
  171   164   163 1
  172   165   159 1
  173   165   164 1
  174   166   165 1
  175   167   166 1
  176   168   167 1
  177   169   168 1
  178   170   169 1
  179   171   170 1
  180   172   171 1
  181   173   172 1
  182   174   153 1
  183   174   173 1
  184   175   159 1
  185   176   159 1
  186   177   164 1
  187   178   168 1
  188   179   172 1
  189   180   179 1
  190   181   179 1
  191   182   179 1
  192   183   178 1
  193   184   178 1
  194   185   178 1
  195   186   177 1
  196   187   177 1
  197   188   177 1
  198   189   176 1
  199   190   176 1
  200   191   176 1
  201   192   175 1
  202   193   175 1
  203   194   175 1
  204   195   160 1
  205   196   160 1
  206   197   158 1
  207   198   158 1
  208   199   158 1
  209   200   157 1
  210   201   157 1
  211   202   157 1
  212   203   156 1
  213   204   156 1
  214   205   156 1
  215   206   155 1
  216   207   155 1
  217   208   155 1
  218   209   154 1
  219   210   154 1
  220   211   154 1
  221   212   141 1
  222   213   146 1
  223   214   145 1
  224   215   142 1
  225   216   142 1
  226   217   174 1
  227   218   173 1
  228   219   171 1
  229   220   170 1
  230   221   169 1
  231   222   140 1
  232   223   167 1
  233   224   166 1
  234   225   165 1
  235   226   163 1
  236   227   161 1
  237   228   139 1
  238   229   139 1
  239   230   153 1
  240   231   152 1
  241   232   150 1
  242   233   149 1
  243   234   148 1
  244   235   162 1
  245   65    153 1
  246   65    174 1
@<TRIPOS>SUBSTRUCTURE
      1 CLA               1 ****               0 ****  **** 
      2 LUT             138 ****               0 ****  **** 
