@<TRIPOS>MOLECULE
Cpptraj generated mol2 file.
  235   246     2     0     0
SMALL
USER_CHARGES


@<TRIPOS>ATOM
      1 CAA        76.9619   57.8750   33.6638 a2         1 CLA     -0.055900
      2 CAB        78.0769   61.1824   42.7334 c8         1 CLA     -0.148500
      3 CAC        70.8414   57.6579   42.7066 a2         1 CLA     -0.012600
      4 CAD        72.9004   55.4310   35.0652 ck         1 CLA      0.398800
      5 NA         76.2848   58.2009   37.1016 ns         1 CLA     -0.225500
      6 CBA        78.1643   57.5488   32.6553 a2         1 CLA     -0.135000
      7 CBB        79.1449   61.9908   43.0446 c0         1 CLA     -0.395200
      8 CBC        70.7554   56.1238   42.6061 a3         1 CLA     -0.037700
      9 CBD        74.3869   55.8645   34.6863 a1         1 CLA     -0.053900
     10 NB         76.5207   59.4667   39.7614 nm         1 CLA     -0.295700
     11 OBD        72.1566   54.8448   34.3323 o2         1 CLA     -0.494600
     12 CGA        78.5296   56.0857   32.4274 c4         1 CLA      0.827000
     13 CGD        75.2323   54.6941   34.2847 c4         1 CLA      0.655300
     14 ND         73.5418   57.4638   37.8466 nm         1 CLA     -0.291600
     15 CED        75.7492   52.4235   34.9756 a3         1 CLA      0.005400
     16 CHA        74.8595   56.7246   35.8564 cs         1 CLA     -0.123800
     17 CHB        78.1957   59.3840   37.9714 aa         1 CLA     -0.291900
     18 CHC        75.3409   59.8492   41.8786 aa         1 CLA     -0.090400
     19 CHD        71.8383   57.4728   39.5786 aa         1 CLA     -0.052000
     20 CMA        79.5954   57.3030   36.3810 a3         1 CLA     -0.230700
     21 CMB        79.9522   60.9288   40.0604 a3         1 CLA     -0.180800
     22 CMC        73.0224   59.4074   44.1811 a3         1 CLA     -0.134000
     23 CMD        70.3338   55.9097   37.3631 a3         1 CLA     -0.141100
     24 C1         79.4679   54.1118   33.4069 a2         1 CLA      0.023000
     25 C1A        76.0349   57.4167   36.0036 ac         1 CLA     -0.015100
     26 C1B        77.7891   59.8172   39.2495 cr         1 CLA      0.054700
     27 C1C        74.1110   59.1883   41.7260 cn         1 CLA     -0.005600
     28 C1D        72.2953   57.1287   38.2948 ap         1 CLA     -0.047300
     29 O1A        78.1213   55.3695   31.4936 o2         1 CLA     -0.610800
     30 O1D        75.8302   54.4762   33.2474 o2         1 CLA     -0.558200
     31 C2         80.2513   53.6458   34.6331 c8         1 CLA     -0.325100
     32 C2A        77.1950   57.3951   35.0941 a1         1 CLA      0.098600
     33 C2B        78.5005   60.6010   40.2352 cb         1 CLA      0.088500
     34 C2C        73.0847   58.9459   42.7466 cb         1 CLA      0.053700
     35 C2D        71.6580   56.3851   37.2944 cb         1 CLA      0.058900
     36 O2A        79.2751   55.5721   33.4973 o1         1 CLA     -0.437200
     37 O2D        75.2063   53.7326   35.3719 o1         1 CLA     -0.357600
     38 C3         81.1363   52.5997   34.7545 c5         1 CLA      0.031200
     39 C3A        78.3791   58.1198   35.8508 a1         1 CLA      0.166800
     40 C3B        77.7056   60.6212   41.3796 cb         1 CLA      0.035000
     41 C3C        72.1428   58.1243   42.0667 cb         1 CLA     -0.089900
     42 C3D        72.6122   56.1307   36.3487 cb         1 CLA     -0.035900
     43 C4         80.6141   51.2363   35.3232 a3         1 CLA     -0.053300
     44 C4A        77.5457   58.6653   36.9746 ac         1 CLA      0.001800
     45 C4B        76.4438   60.0002   41.0246 cn         1 CLA     -0.020900
     46 C4C        72.5025   58.0334   40.6751 cr         1 CLA     -0.044400
     47 C4D        73.7948   56.7929   36.6903 c6         1 CLA     -0.046000
     48 C5         82.6310   52.7646   34.3214 a2         1 CLA     -0.070400
     49 C6         83.2638   54.0100   34.9028 a2         1 CLA      0.043900
     50 C7         83.6047   53.8764   36.4246 a2         1 CLA     -0.150000
     51 C8         83.9288   55.2486   37.0715 a1         1 CLA      0.064200
     52 C9         85.3019   55.7716   36.5005 a3         1 CLA     -0.259300
     53 C10        84.0613   55.0732   38.6338 a2         1 CLA     -0.071900
     54 C11        82.7767   54.7085   39.4621 a2         1 CLA      0.014500
     55 C12        82.6889   55.4203   40.8694 a2         1 CLA     -0.112100
     56 C13        81.3515   55.4441   41.6866 a1         1 CLA      0.089200
     57 C14        80.1887   56.0991   40.9935 a3         1 CLA     -0.239100
     58 C15        81.5564   55.9927   43.1343 a2         1 CLA     -0.102200
     59 C16        82.1846   57.3711   43.2795 a2         1 CLA      0.023900
     60 C17        82.4638   57.6388   44.7803 a2         1 CLA     -0.105700
     61 C18        82.9656   59.0320   45.2065 a1         1 CLA      0.206800
     62 C19        84.3869   59.3672   44.5988 a3         1 CLA     -0.280100
     63 C20        81.9388   60.1179   44.6564 a3         1 CLA     -0.280100
     64 NC         73.7638   58.5898   40.5286 nx         1 CLA     -0.309200
     65 MG         74.9091   58.6471   38.7446 mg         1 CLA      0.895000
     66 HMD3       70.3212   55.0813   36.6485 dc         1 CLA      0.064300
     67 HMD2       70.2380   55.4985   38.3492 dc         1 CLA      0.064300
     68 HMD1       69.6871   56.6852   36.9893 dc         1 CLA      0.064300
     69 HMC3       74.0102   59.7762   44.5729 dc         1 CLA      0.052100
     70 HMC2       72.2631   60.1600   44.3327 dc         1 CLA      0.052100
     71 HMC1       72.5938   58.5183   44.6879 dc         1 CLA      0.052100
     72 HMB3       80.4353   60.7764   41.0310 dc         1 CLA      0.063600
     73 HMB2       80.3377   60.2140   39.3919 dc         1 CLA      0.063600
     74 HMB1       80.1670   61.9294   39.6684 dc         1 CLA      0.063600
     75 HMA3       80.1475   57.6960   37.2103 dc         1 CLA      0.058300
     76 HMA2       79.1979   56.3536   36.7081 dc         1 CLA      0.058300
     77 HMA1       80.2331   57.0717   35.5530 dc         1 CLA      0.058300
     78 HED3       75.7492   51.8320   35.8719 dc         1 CLA      0.079300
     79 HED2       75.1805   51.9131   34.2423 dc         1 CLA      0.079300
     80 HED1       76.7606   52.6559   34.7333 dc         1 CLA      0.079300
     81 HBC3       71.5291   55.5249   43.1241 dc         1 CLA      0.016300
     82 HBC2       69.7859   55.8529   43.0240 dc         1 CLA      0.016300
     83 HBC1       70.8881   55.8308   41.5069 dc         1 CLA      0.016300
     84 HBB2       79.3355   62.3511   44.0387 da         1 CLA      0.183000
     85 HBB1       79.8790   62.3917   42.3093 da         1 CLA      0.183000
     86 HBA2       77.9426   58.0237   31.7280 dc         1 CLA      0.029400
     87 HBA1       79.0077   58.0455   33.0916 dc         1 CLA      0.029400
     88 HAC2       70.8052   57.9215   43.7335 dc         1 CLA      0.029300
     89 HAC1       70.0216   58.1434   42.2525 dc         1 CLA      0.029300
     90 HAA2       76.0176   57.4076   33.2906 dc         1 CLA      0.028700
     91 HAA1       76.8710   58.9568   33.6757 dc         1 CLA      0.028700
     92 H203       82.0973   61.1009   45.1019 dc         1 CLA      0.065600
     93 H202       82.1051   60.1838   43.5444 dc         1 CLA      0.065600
     94 H201       80.8611   59.9047   44.8500 dc         1 CLA      0.065600
     95 H193       84.7188   60.2076   45.2043 dc         1 CLA      0.065600
     96 H192       85.0154   58.5101   44.7306 dc         1 CLA      0.065600
     97 H191       84.3394   59.5054   43.5322 dc         1 CLA      0.065600
     98 H172       81.5173   57.5451   45.2691 dc         1 CLA      0.027600
     99 H171       83.0230   56.8095   45.2217 dc         1 CLA      0.027600
    100 H162       83.1012   57.4294   42.6713 dc         1 CLA      0.002900
    101 H161       81.3971   58.0408   43.0278 dc         1 CLA      0.002900
    102 H152       80.5889   55.9976   43.6515 dc         1 CLA      0.029100
    103 H151       82.0582   55.1530   43.5689 dc         1 CLA      0.029100
    104 H143       79.2869   56.1162   41.6654 dc         1 CLA      0.063600
    105 H142       80.4329   57.1735   40.7680 dc         1 CLA      0.063600
    106 H141       79.9738   55.5464   40.0394 dc         1 CLA      0.063600
    107 H122       83.4548   54.9606   41.4560 dc         1 CLA      0.032500
    108 H121       82.8771   56.4829   40.7194 dc         1 CLA      0.032500
    109 H112       81.8644   55.0399   38.9333 dc         1 CLA      0.006600
    110 H111       82.7563   53.5881   39.5466 dc         1 CLA      0.006600
    111 H102       84.7654   54.2879   38.8057 dc         1 CLA      0.024100
    112 H101       84.4231   56.0323   39.1318 dc         1 CLA      0.024100
    113 HHD        70.8909   56.9936   39.8854 da         1 CLA      0.174300
    114 HHC        75.4201   60.1288   42.9281 da         1 CLA      0.136800
    115 HHB        79.1424   59.7750   37.6444 da         1 CLA      0.138300
    116 HBD        74.2327   56.5667   33.8141 dc         1 CLA      0.107700
    117 HAB        77.3772   60.8773   43.5341 da         1 CLA      0.155200
    118 H93        85.4116   56.8606   36.8340 dc         1 CLA      0.069500
    119 H92        86.2098   55.2386   36.7456 dc         1 CLA      0.069500
    120 H91        85.2551   55.9131   35.4218 dc         1 CLA      0.069500
    121 H8         82.9938   55.8965   36.9248 dc         1 CLA      0.029300
    122 H72        82.6990   53.4361   36.9157 dc         1 CLA      0.044400
    123 H71        84.4911   53.2439   36.5335 dc         1 CLA      0.044400
    124 H62        84.1000   54.1699   34.1945 dc         1 CLA      0.015600
    125 H61        82.5786   54.8600   34.7891 dc         1 CLA      0.015600
    126 H52        83.1994   51.8436   34.4172 dc         1 CLA      0.033200
    127 H51        82.6341   52.8848   33.2076 dc         1 CLA      0.033200
    128 H43        79.5152   51.3581   35.2871 dc         1 CLA      0.037000
    129 H42        81.0577   50.4034   34.8634 dc         1 CLA      0.037000
    130 H41        80.9639   51.1439   36.3209 dc         1 CLA      0.037000
    131 H3A        78.8213   58.9794   35.2616 dc         1 CLA      0.041100
    132 H2A        77.4935   56.3387   35.0772 dc         1 CLA      0.083100
    133 H2         80.3276   54.3566   35.4941 da         1 CLA      0.180900
    134 H18        82.9619   59.0655   46.2448 dc         1 CLA     -0.003900
    135 H13        81.0468   54.4127   41.8174 dc         1 CLA      0.019700
    136 H12        78.5567   53.5110   33.4969 dc         1 CLA      0.120400
    137 H11        79.9590   53.7957   32.4750 dc         1 CLA      0.120400
    138 C1         67.8321   61.4433   50.0319 Z1         2 LUT      0.509236
    139 C2         67.8845   62.7562   50.9145 Z2         2 LUT     -0.434695
    140 C3         66.6120   63.4371   51.0961 Z3         2 LUT      0.437453
    141 O3         66.7533   64.7432   51.6990 S1         2 LUT     -0.547129
    142 C4         65.7806   63.5300   49.7657 Z4         2 LUT     -0.468603
    143 C5         66.4026   62.9515   48.5903 Z5         2 LUT      0.279246
    144 C6         67.3022   61.9108   48.6541 Z6         2 LUT     -0.305473
    145 C7         68.1656   61.4591   47.5224 Z7         2 LUT      0.069402
    146 C8         68.6689   62.1592   46.4997 Z8         2 LUT     -0.191631
    147 C9         69.1865   61.7357   45.2099 Z9         2 LUT      0.196698
    148 C10        70.2845   62.4092   44.7886 Y1         2 LUT     -0.208611
    149 C11        70.9876   62.2838   43.5294 Y2         2 LUT      0.030784
    150 C12        72.2741   62.7230   43.2997 Y3         2 LUT     -0.220316
    151 C13        73.0287   62.7001   42.0595 Y4         2 LUT      0.215937
    152 C14        74.2302   63.3828   41.9529 Y5         2 LUT     -0.185793
    153 C15        75.0895   63.4836   40.8618 Y6         2 LUT     -0.057835
    154 C16        66.8889   60.3986   50.8092 Y7         2 LUT     -0.405615
    155 C17        69.2559   60.8211   50.0125 Y7         2 LUT     -0.405615
    156 C18        65.8241   63.6258   47.3658 Y9         2 LUT     -0.369639
    157 C19        68.4732   60.5620   44.5981 W1         2 LUT     -0.333362
    158 C20        72.4632   61.8786   40.9077 W2         2 LUT     -0.323439
    159 C21        86.2867   64.4785   34.4388 Z1         2 LUT      0.406104
    160 C22        87.1003   64.1845   33.1811 Z2         2 LUT     -0.404965
    161 C23        87.2161   65.2410   32.1225 Z3         2 LUT      0.391255
    162 O23        87.9629   64.7304   30.9920 S1         2 LUT     -0.528210
    163 C24        85.8986   65.9518   31.9081 W6         2 LUT     -0.258361
    164 C25        84.8295   65.8071   32.7032 Z5         2 LUT      0.133546
    165 C26        84.8370   64.8923   33.9700 W8         2 LUT     -0.147008
    166 C27        83.9826   65.5427   35.0214 Z7         2 LUT      0.023843
    167 C28        83.0824   64.8859   35.8411 Z8         2 LUT     -0.216987
    168 C29        82.4179   65.5618   36.9810 Z9         2 LUT      0.206524
    169 C30        81.3274   64.9314   37.5258 Y1         2 LUT     -0.215556
    170 C31        80.6199   65.3585   38.6455 Y2         2 LUT      0.025142
    171 C32        79.4434   64.7953   39.0306 Y3         2 LUT     -0.212209
    172 C33        78.5685   65.0110   40.1111 Y4         2 LUT      0.240937
    173 C34        77.3486   64.3598   40.0098 Y5         2 LUT     -0.218862
    174 C35        76.3006   64.2281   41.0227 Y6         2 LUT     -0.023547
    175 C36        86.9872   65.5829   35.2274 Y7         2 LUT     -0.393485
    176 C37        86.1885   63.1949   35.3331 Y7         2 LUT     -0.393485
    177 C38        83.5429   66.5623   32.4823 Y9         2 LUT     -0.387526
    178 C39        83.0323   66.9293   37.4954 W1         2 LUT     -0.322618
    179 C40        78.9697   65.9329   41.3127 W2         2 LUT     -0.358472
    180 H403       79.6258   65.3681   41.9794 R7         2 LUT      0.097720
    181 H402       79.4287   66.8892   40.9900 R7         2 LUT      0.097720
    182 H401       78.1118   66.3048   41.8914 R7         2 LUT      0.097720
    183 H393       83.9935   66.6930   37.9660 R4         2 LUT      0.082505
    184 H392       83.0223   67.7659   36.7388 R4         2 LUT      0.082505
    185 H391       82.4305   67.3007   38.2516 R4         2 LUT      0.082505
    186 H383       82.7517   65.8503   32.1998 R1         2 LUT      0.104030
    187 H382       83.2234   67.2015   33.3325 R1         2 LUT      0.104030
    188 H381       83.6238   67.2142   31.5801 R1         2 LUT      0.104030
    189 H373       85.5928   62.5359   34.7441 T4         2 LUT      0.089537
    190 H372       87.1467   62.7083   35.3928 T4         2 LUT      0.089537
    191 H371       85.8063   63.2875   36.3949 T4         2 LUT      0.089537
    192 H363       86.9987   66.4281   34.6469 T4         2 LUT      0.089537
    193 H362       86.4029   65.9840   36.0918 T4         2 LUT      0.089537
    194 H361       87.9353   65.2439   35.5966 T4         2 LUT      0.089537
    195 H222       88.1411   63.9665   33.4849 U2         2 LUT      0.127376
    196 H221       86.5091   63.3317   32.7320 U2         2 LUT      0.127376
    197 H203       71.6861   62.5216   40.4460 R7         2 LUT      0.087068
    198 H202       73.2149   61.5845   40.1771 R7         2 LUT      0.087068
    199 H201       72.1125   60.9018   41.2124 R7         2 LUT      0.087068
    200 H193       68.3542   59.7126   45.1988 R4         2 LUT      0.089716
    201 H192       67.4630   60.8851   44.3273 R4         2 LUT      0.089716
    202 H191       68.8737   60.3167   43.6069 R4         2 LUT      0.089716
    203 H183       64.7247   63.8686   47.4095 R1         2 LUT      0.094572
    204 H182       66.4549   64.5136   47.2112 R1         2 LUT      0.094572
    205 H181       65.9552   62.9133   46.5260 R1         2 LUT      0.094572
    206 H173       69.5115   60.3627   51.0068 T4         2 LUT      0.093752
    207 H172       69.3671   59.9557   49.4096 T4         2 LUT      0.093752
    208 H171       70.0437   61.6001   49.7961 T4         2 LUT      0.093752
    209 H163       67.2034   60.0106   51.7858 T4         2 LUT      0.093752
    210 H162       65.8061   60.7247   50.8507 T4         2 LUT      0.093752
    211 H161       66.8331   59.4548   50.2539 T4         2 LUT      0.093752
    212 HO3        65.8492   65.0204   51.9206 Q1         2 LUT      0.300121
    213 H8         68.5827   63.2315   46.4963 U7         2 LUT      0.080784
    214 H7         68.2261   60.4050   47.3993 U6         2 LUT      0.042190
    215 H42        64.7458   63.1490   49.8227 U5         2 LUT      0.145166
    216 H41        65.4048   64.5456   49.5280 U5         2 LUT      0.145166
    217 H35        76.4786   64.7939   41.9304 T3         2 LUT      0.077919
    218 H34        77.0828   63.8889   39.0743 T2         2 LUT      0.073626
    219 H32        79.0964   64.0820   38.2337 T1         2 LUT      0.092510
    220 H31        81.0343   66.1633   39.2563 U9         2 LUT      0.070048
    221 H30        80.9606   64.1201   36.9379 U8         2 LUT      0.085442
    222 H3         66.0967   62.8078   51.8486 U3         2 LUT     -0.031596
    223 H28        82.8155   63.8417   35.6234 U7         2 LUT      0.084728
    224 H27        84.1385   66.5594   35.1420 U6         2 LUT      0.087291
    225 H26        84.3146   64.0377   33.5534 Q6         2 LUT      0.075325
    226 H24        85.8083   66.4100   30.8943 Q5         2 LUT      0.094482
    227 H23        88.0407   65.9103   32.5298 U3         2 LUT     -0.024869
    228 H22        68.1839   62.5749   51.9642 U2         2 LUT      0.127376
    229 H21        68.4935   63.5084   50.3826 U2         2 LUT      0.127376
    230 H15        75.0857   62.8841   39.9181 T3         2 LUT      0.093200
    231 H14        74.4920   63.9475   42.8304 T2         2 LUT      0.068865
    232 H12        72.7456   63.2138   44.1496 T1         2 LUT      0.095507
    233 H11        70.4842   61.8878   42.6992 U9         2 LUT      0.068930
    234 H10        70.6276   63.1960   45.4339 U8         2 LUT      0.083911
    235 H1         87.4840   64.1197   30.3893 Q1         2 LUT      0.297311
@<TRIPOS>BOND
    1     6     1 1
    2     7     2 1
    3     8     3 1
    4     9     4 1
    5    11     4 1
    6    12     6 1
    7    13     9 1
    8    16     9 1
    9    25     5 1
   10    25    16 1
   11    26    10 1
   12    26    17 1
   13    27    18 1
   14    28    14 1
   15    28    19 1
   16    29    12 1
   17    30    13 1
   18    31    24 1
   19    32     1 1
   20    32    25 1
   21    33    21 1
   22    33    26 1
   23    34    22 1
   24    34    27 1
   25    35    23 1
   26    35    28 1
   27    36    12 1
   28    36    24 1
   29    37    13 1
   30    37    15 1
   31    38    31 1
   32    39    20 1
   33    39    32 1
   34    40     2 1
   35    40    33 1
   36    41     3 1
   37    41    34 1
   38    42     4 1
   39    42    35 1
   40    43    38 1
   41    44     5 1
   42    44    17 1
   43    44    39 1
   44    45    10 1
   45    45    18 1
   46    45    40 1
   47    46    19 1
   48    46    41 1
   49    47    14 1
   50    47    16 1
   51    47    42 1
   52    48    38 1
   53    49    48 1
   54    50    49 1
   55    51    50 1
   56    52    51 1
   57    53    51 1
   58    54    53 1
   59    55    54 1
   60    56    55 1
   61    57    56 1
   62    58    56 1
   63    59    58 1
   64    60    59 1
   65    61    60 1
   66    62    61 1
   67    63    61 1
   68    64    27 1
   69    64    46 1
   70    65     5 1
   71    65    10 1
   72    65    64 1
   73    65    14 1
   74    66    23 1
   75    67    23 1
   76    68    23 1
   77    69    22 1
   78    70    22 1
   79    71    22 1
   80    72    21 1
   81    73    21 1
   82    74    21 1
   83    75    20 1
   84    76    20 1
   85    77    20 1
   86    78    15 1
   87    79    15 1
   88    80    15 1
   89    81     8 1
   90    82     8 1
   91    83     8 1
   92    84     7 1
   93    85     7 1
   94    86     6 1
   95    87     6 1
   96    88     3 1
   97    89     3 1
   98    90     1 1
   99    91     1 1
  100    92    63 1
  101    93    63 1
  102    94    63 1
  103    95    62 1
  104    96    62 1
  105    97    62 1
  106    98    60 1
  107    99    60 1
  108   100    59 1
  109   101    59 1
  110   102    58 1
  111   103    58 1
  112   104    57 1
  113   105    57 1
  114   106    57 1
  115   107    55 1
  116   108    55 1
  117   109    54 1
  118   110    54 1
  119   111    53 1
  120   112    53 1
  121   113    19 1
  122   114    18 1
  123   115    17 1
  124   116     9 1
  125   117     2 1
  126   118    52 1
  127   119    52 1
  128   120    52 1
  129   121    51 1
  130   122    50 1
  131   123    50 1
  132   124    49 1
  133   125    49 1
  134   126    48 1
  135   127    48 1
  136   128    43 1
  137   129    43 1
  138   130    43 1
  139   131    39 1
  140   132    32 1
  141   133    31 1
  142   134    61 1
  143   135    56 1
  144   136    24 1
  145   137    24 1
  146   139   138 1
  147   140   139 1
  148   141   140 1
  149   142   140 1
  150   143   142 1
  151   144   138 1
  152   144   143 1
  153   145   144 1
  154   146   145 1
  155   147   146 1
  156   148   147 1
  157   149   148 1
  158   150   149 1
  159   151   150 1
  160   152   151 1
  161   153   152 1
  162   154   138 1
  163   155   138 1
  164   156   143 1
  165   157   147 1
  166   158   151 1
  167   160   159 1
  168   161   160 1
  169   162   161 1
  170   163   161 1
  171   164   163 1
  172   165   159 1
  173   165   164 1
  174   166   165 1
  175   167   166 1
  176   168   167 1
  177   169   168 1
  178   170   169 1
  179   171   170 1
  180   172   171 1
  181   173   172 1
  182   174   153 1
  183   174   173 1
  184   175   159 1
  185   176   159 1
  186   177   164 1
  187   178   168 1
  188   179   172 1
  189   180   179 1
  190   181   179 1
  191   182   179 1
  192   183   178 1
  193   184   178 1
  194   185   178 1
  195   186   177 1
  196   187   177 1
  197   188   177 1
  198   189   176 1
  199   190   176 1
  200   191   176 1
  201   192   175 1
  202   193   175 1
  203   194   175 1
  204   195   160 1
  205   196   160 1
  206   197   158 1
  207   198   158 1
  208   199   158 1
  209   200   157 1
  210   201   157 1
  211   202   157 1
  212   203   156 1
  213   204   156 1
  214   205   156 1
  215   206   155 1
  216   207   155 1
  217   208   155 1
  218   209   154 1
  219   210   154 1
  220   211   154 1
  221   212   141 1
  222   213   146 1
  223   214   145 1
  224   215   142 1
  225   216   142 1
  226   217   174 1
  227   218   173 1
  228   219   171 1
  229   220   170 1
  230   221   169 1
  231   222   140 1
  232   223   167 1
  233   224   166 1
  234   225   165 1
  235   226   163 1
  236   227   161 1
  237   228   139 1
  238   229   139 1
  239   230   153 1
  240   231   152 1
  241   232   150 1
  242   233   149 1
  243   234   148 1
  244   235   162 1
  245   65    153 1
  246   65    174 1
@<TRIPOS>SUBSTRUCTURE
      1 CLA               1 ****               0 ****  **** 
      2 LUT             138 ****               0 ****  **** 
