@<TRIPOS>MOLECULE
Cpptraj generated mol2 file.
  235   246     2     0     0
SMALL
USER_CHARGES


@<TRIPOS>ATOM
      1 CAA        77.9675   58.1861   34.0703 a2         1 CLA     -0.055900
      2 CAB        78.1321   61.1032   43.3603 c8         1 CLA     -0.148500
      3 CAC        71.1747   57.2382   42.4867 a2         1 CLA     -0.012600
      4 CAD        73.9534   55.2844   35.2253 ck         1 CLA      0.398800
      5 NA         77.0009   58.1591   37.5521 ns         1 CLA     -0.225500
      6 CBA        79.1531   58.1331   33.0252 a2         1 CLA     -0.135000
      7 CBB        79.3075   60.8854   44.0186 c0         1 CLA     -0.395200
      8 CBC        71.1516   55.6812   42.6631 a3         1 CLA     -0.037700
      9 CBD        75.2946   55.9767   34.8381 a1         1 CLA     -0.053900
     10 NB         76.8570   59.5810   40.1912 nm         1 CLA     -0.295700
     11 OBD        73.3724   54.4815   34.4210 o2         1 CLA     -0.494600
     12 CGA        79.8382   56.8166   32.5809 c4         1 CLA      0.827000
     13 CGD        76.3068   54.9674   34.4104 c4         1 CLA      0.655300
     14 ND         74.2009   57.2485   38.0646 nm         1 CLA     -0.291600
     15 CED        77.6975   53.1251   34.9411 a3         1 CLA      0.005400
     16 CHA        75.6332   56.8465   36.0722 cs         1 CLA     -0.123800
     17 CHB        78.8069   59.3597   38.7248 aa         1 CLA     -0.291900
     18 CHC        75.5322   59.7538   42.2926 aa         1 CLA     -0.090400
     19 CHD        72.2786   57.1503   39.6118 aa         1 CLA     -0.052000
     20 CMA        80.4183   57.5137   36.6993 a3         1 CLA     -0.230700
     21 CMB        80.1684   60.9423   40.9058 a3         1 CLA     -0.180800
     22 CMC        73.3297   58.9146   44.2598 a3         1 CLA     -0.134000
     23 CMD        71.3333   54.9419   37.5714 a3         1 CLA     -0.141100
     24 C1         80.5621   54.6533   33.3027 a2         1 CLA      0.023000
     25 C1A        76.8344   57.5652   36.3419 ac         1 CLA     -0.015100
     26 C1B        78.1434   59.8622   39.8829 cr         1 CLA      0.054700
     27 C1C        74.4248   59.0247   41.9167 cn         1 CLA     -0.005600
     28 C1D        72.9251   56.7640   38.4647 ap         1 CLA     -0.047300
     29 O1A        80.0269   56.4754   31.4281 o2         1 CLA     -0.610800
     30 O1D        77.0347   55.1152   33.4303 o2         1 CLA     -0.558200
     31 C2         81.2730   54.1645   34.5353 c8         1 CLA     -0.325100
     32 C2A        78.0986   57.5227   35.5095 a1         1 CLA      0.098600
     33 C2B        78.8107   60.4958   40.9870 cb         1 CLA      0.088500
     34 C2C        73.3648   58.5896   42.7844 cb         1 CLA      0.053700
     35 C2D        72.5677   55.7180   37.5252 cb         1 CLA      0.058900
     36 O2A        80.1804   56.0017   33.6279 o1         1 CLA     -0.437200
     37 O2D        76.4067   53.8268   35.1215 o1         1 CLA     -0.357600
     38 C3         82.1946   53.2072   34.6525 c5         1 CLA      0.031200
     39 C3A        79.1009   58.3259   36.4605 a1         1 CLA      0.166800
     40 C3B        77.8975   60.5591   41.9962 cb         1 CLA      0.035000
     41 C3C        72.4362   57.8772   42.0426 cb         1 CLA     -0.089900
     42 C3D        73.5148   55.8006   36.5419 cb         1 CLA     -0.035900
     43 C4         81.8508   51.7928   35.1068 a3         1 CLA     -0.053300
     44 C4A        78.2687   58.6500   37.6921 ac         1 CLA      0.001800
     45 C4B        76.6552   59.9986   41.4809 cn         1 CLA     -0.020900
     46 C4C        72.8961   57.9446   40.6588 cr         1 CLA     -0.044400
     47 C4D        74.4979   56.7415   36.9107 c6         1 CLA     -0.046000
     48 C5         83.6881   53.6170   34.3722 a2         1 CLA     -0.070400
     49 C6         84.1593   55.0230   34.7033 a2         1 CLA      0.043900
     50 C7         84.3385   55.0612   36.2699 a2         1 CLA     -0.150000
     51 C8         84.7877   56.4359   36.9231 a1         1 CLA      0.064200
     52 C9         85.9359   57.0075   36.1271 a3         1 CLA     -0.259300
     53 C10        84.9586   56.3205   38.5138 a2         1 CLA     -0.071900
     54 C11        83.6692   55.8763   39.2459 a2         1 CLA      0.014500
     55 C12        83.7190   56.4384   40.6630 a2         1 CLA     -0.112100
     56 C13        82.4385   56.4344   41.4777 a1         1 CLA      0.089200
     57 C14        81.2194   57.2416   40.8868 a3         1 CLA     -0.239100
     58 C15        82.7462   56.8057   42.9981 a2         1 CLA     -0.102200
     59 C16        83.2609   58.2578   43.3049 a2         1 CLA      0.023900
     60 C17        83.2900   58.5156   44.8721 a2         1 CLA     -0.105700
     61 C18        83.7493   59.9891   45.3145 a1         1 CLA      0.206800
     62 C19        84.9955   60.4455   44.5044 a3         1 CLA     -0.280100
     63 C20        82.5853   60.9203   44.8778 a3         1 CLA     -0.280100
     64 NC         74.1593   58.5613   40.6011 nx         1 CLA     -0.309200
     65 MG         75.4478   58.5493   39.0529 mg         1 CLA      0.895000
     66 HMD3       70.5628   55.6042   37.2723 dc         1 CLA      0.064300
     67 HMD2       71.4631   54.0105   37.0721 dc         1 CLA      0.064300
     68 HMD1       71.1449   54.6897   38.5629 dc         1 CLA      0.064300
     69 HMC3       72.4072   58.6776   44.7916 dc         1 CLA      0.052100
     70 HMC2       74.1238   58.4528   44.8313 dc         1 CLA      0.052100
     71 HMC1       73.3269   59.9774   44.3102 dc         1 CLA      0.052100
     72 HMB3       80.4766   61.1565   39.8587 dc         1 CLA      0.063600
     73 HMB2       80.3676   61.8479   41.3502 dc         1 CLA      0.063600
     74 HMB1       80.8329   60.2290   41.3762 dc         1 CLA      0.063600
     75 HMA3       81.0379   58.0490   37.4142 dc         1 CLA      0.058300
     76 HMA2       80.1607   56.5305   37.1536 dc         1 CLA      0.058300
     77 HMA1       81.1100   57.4889   35.8645 dc         1 CLA      0.058300
     78 HED3       78.4725   53.8120   35.2240 dc         1 CLA      0.079300
     79 HED2       77.6676   52.3398   35.6424 dc         1 CLA      0.079300
     80 HED1       77.8986   52.7018   33.9214 dc         1 CLA      0.079300
     81 HBC3       71.6216   55.1922   43.4930 dc         1 CLA      0.016300
     82 HBC2       70.0874   55.4476   42.6540 dc         1 CLA      0.016300
     83 HBC1       71.5203   55.2511   41.6868 dc         1 CLA      0.016300
     84 HBB2       79.4958   61.2444   45.0734 da         1 CLA      0.183000
     85 HBB1       80.1117   60.2137   43.6109 da         1 CLA      0.183000
     86 HBA2       78.7857   58.5277   32.0483 dc         1 CLA      0.029400
     87 HBA1       79.9637   58.8368   33.3073 dc         1 CLA      0.029400
     88 HAC2       70.8071   57.7844   43.3966 dc         1 CLA      0.029300
     89 HAC1       70.4046   57.4334   41.6875 dc         1 CLA      0.029300
     90 HAA2       77.2006   57.6430   33.4561 dc         1 CLA      0.028700
     91 HAA1       77.8230   59.2940   34.1693 dc         1 CLA      0.028700
     92 H203       82.7028   61.9823   45.3175 dc         1 CLA      0.065600
     93 H202       82.5816   61.1013   43.8311 dc         1 CLA      0.065600
     94 H201       81.6693   60.5477   45.1185 dc         1 CLA      0.065600
     95 H193       85.2879   61.3560   45.0367 dc         1 CLA      0.065600
     96 H192       85.7833   59.7004   44.6551 dc         1 CLA      0.065600
     97 H191       84.7756   60.5292   43.4401 dc         1 CLA      0.065600
     98 H172       82.3934   58.3196   45.3882 dc         1 CLA      0.027600
     99 H171       84.0349   57.8530   45.3581 dc         1 CLA      0.027600
    100 H162       84.2638   58.3803   42.8641 dc         1 CLA      0.002900
    101 H161       82.6574   59.0462   42.8231 dc         1 CLA      0.002900
    102 H152       81.8538   56.5703   43.5968 dc         1 CLA      0.029100
    103 H151       83.4204   56.0427   43.3847 dc         1 CLA      0.029100
    104 H143       81.5940   58.1964   40.4435 dc         1 CLA      0.063600
    105 H142       80.7094   56.6710   40.0522 dc         1 CLA      0.063600
    106 H141       80.4920   57.5288   41.6170 dc         1 CLA      0.063600
    107 H122       84.5627   56.0794   41.2019 dc         1 CLA      0.032500
    108 H121       83.8848   57.4820   40.6998 dc         1 CLA      0.032500
    109 H112       82.8753   56.3474   38.7050 dc         1 CLA      0.006600
    110 H111       83.4349   54.8298   39.1386 dc         1 CLA      0.006600
    111 H102       85.7242   55.6201   38.8006 dc         1 CLA      0.024100
    112 H101       85.3421   57.2284   38.8081 dc         1 CLA      0.024100
    113 HHD        71.4058   56.6066   39.8821 da         1 CLA      0.174300
    114 HHC        75.7290   59.7503   43.3561 da         1 CLA      0.136800
    115 HHB        79.8788   59.5466   38.5744 da         1 CLA      0.138300
    116 HBD        75.1256   56.5967   33.9657 dc         1 CLA      0.107700
    117 HAB        77.2994   61.6133   43.8935 da         1 CLA      0.155200
    118 H93        86.1355   58.0593   36.2575 dc         1 CLA      0.069500
    119 H92        86.8567   56.4495   36.3590 dc         1 CLA      0.069500
    120 H91        85.8355   56.9897   35.0494 dc         1 CLA      0.069500
    121 H8         83.9413   57.1850   36.7236 dc         1 CLA      0.029300
    122 H72        83.4170   54.7289   36.7041 dc         1 CLA      0.044400
    123 H71        85.1637   54.3701   36.5462 dc         1 CLA      0.044400
    124 H62        85.0974   55.2338   34.2309 dc         1 CLA      0.015600
    125 H61        83.4764   55.8407   34.3949 dc         1 CLA      0.015600
    126 H52        84.4468   53.0223   34.8665 dc         1 CLA      0.033200
    127 H51        83.7766   53.6736   33.2977 dc         1 CLA      0.033200
    128 H43        80.8914   51.6890   35.4752 dc         1 CLA      0.037000
    129 H42        82.2564   50.9884   34.4295 dc         1 CLA      0.037000
    130 H41        82.4646   51.6427   35.9785 dc         1 CLA      0.037000
    131 H3A        79.4883   59.2341   36.0244 dc         1 CLA      0.041100
    132 H2A        78.4869   56.5341   35.4814 dc         1 CLA      0.083100
    133 H2         81.1257   54.7647   35.4267 da         1 CLA      0.180900
    134 H18        83.8574   60.0001   46.4172 dc         1 CLA     -0.003900
    135 H13        82.0357   55.3815   41.4570 dc         1 CLA      0.019700
    136 H12        79.6850   54.1379   33.0010 dc         1 CLA      0.120400
    137 H11        81.1233   54.5525   32.3968 dc         1 CLA      0.120400
    138 C1         67.4436   61.0315   50.4798 Z1         2 LUT      0.509236
    139 C2         67.7056   62.4000   51.0709 Z2         2 LUT     -0.434695
    140 C3         66.4191   63.1168   51.4383 Z3         2 LUT      0.437453
    141 O3         66.5936   64.5100   51.7743 S1         2 LUT     -0.547129
    142 C4         65.5440   63.0802   50.1124 Z4         2 LUT     -0.468603
    143 C5         66.0659   62.3874   48.9032 Z5         2 LUT      0.279246
    144 C6         66.9355   61.3941   49.0654 Z6         2 LUT     -0.305473
    145 C7         67.7808   60.8882   47.9662 Z7         2 LUT      0.069402
    146 C8         68.6552   61.4934   47.0925 Z8         2 LUT     -0.191631
    147 C9         69.2001   60.9621   45.7975 Z9         2 LUT      0.196698
    148 C10        70.1194   61.7918   45.0741 Y1         2 LUT     -0.208611
    149 C11        70.6776   61.5967   43.7599 Y2         2 LUT      0.030784
    150 C12        71.7676   62.3796   43.3148 Y3         2 LUT     -0.220316
    151 C13        72.5952   62.3304   42.0751 Y4         2 LUT      0.215937
    152 C14        73.7937   63.0159   42.0355 Y5         2 LUT     -0.185793
    153 C15        74.8542   63.0539   41.0799 Y6         2 LUT     -0.057835
    154 C16        66.4996   60.2453   51.4300 Y7         2 LUT     -0.405615
    155 C17        68.8619   60.4068   50.5029 Y7         2 LUT     -0.405615
    156 C18        65.8918   63.1599   47.5938 Y9         2 LUT     -0.369639
    157 C19        68.7192   59.6513   45.2413 W1         2 LUT     -0.333362
    158 C20        72.1617   61.4907   40.9461 W2         2 LUT     -0.323439
    159 C21        86.6835   64.8007   35.4503 Z1         2 LUT      0.406104
    160 C22        87.3934   64.2019   34.1626 Z2         2 LUT     -0.404965
    161 C23        87.4830   64.9813   32.8973 Z3         2 LUT      0.391255
    162 O23        87.6826   64.0686   31.8596 S1         2 LUT     -0.528210
    163 C24        86.2615   65.8634   32.7358 W6         2 LUT     -0.258361
    164 C25        85.2503   65.9948   33.6104 Z5         2 LUT      0.133546
    165 C26        85.2272   65.1613   34.9501 W8         2 LUT     -0.147008
    166 C27        84.3530   65.8527   36.0654 Z7         2 LUT      0.023843
    167 C28        83.0344   65.5255   36.3625 Z8         2 LUT     -0.216987
    168 C29        82.3647   65.7654   37.6762 Z9         2 LUT      0.206524
    169 C30        81.1173   65.2011   37.9312 Y1         2 LUT     -0.215556
    170 C31        80.3075   65.1223   39.1164 Y2         2 LUT      0.025142
    171 C32        79.1404   64.4602   39.2109 Y3         2 LUT     -0.212209
    172 C33        78.2900   64.4208   40.3766 Y4         2 LUT      0.240937
    173 C34        77.0987   63.7845   40.2705 Y5         2 LUT     -0.218862
    174 C35        76.1129   63.7112   41.2337 Y6         2 LUT     -0.023547
    175 C36        87.6239   65.9718   35.9658 Y7         2 LUT     -0.393485
    176 C37        86.6978   63.8466   36.6929 Y7         2 LUT     -0.393485
    177 C38        84.0297   66.8131   33.2532 Y9         2 LUT     -0.387526
    178 C39        83.0085   66.6404   38.7007 W1         2 LUT     -0.322618
    179 C40        78.6017   65.4383   41.3848 W2         2 LUT     -0.358472
    180 H403       78.5539   66.3534   40.7861 R7         2 LUT      0.097720
    181 H402       77.9207   65.5228   42.2672 R7         2 LUT      0.097720
    182 H401       79.6715   65.2872   41.7565 R7         2 LUT      0.097720
    183 H393       84.0614   66.7192   38.6448 R4         2 LUT      0.082505
    184 H392       82.5876   67.6635   38.8528 R4         2 LUT      0.082505
    185 H391       82.8779   66.2291   39.6767 R4         2 LUT      0.082505
    186 H383       83.4562   67.2188   34.1012 R1         2 LUT      0.104030
    187 H382       84.2742   67.6537   32.5597 R1         2 LUT      0.104030
    188 H381       83.2196   66.2789   32.7900 R1         2 LUT      0.104030
    189 H373       87.6680   63.5064   37.0037 T4         2 LUT      0.089537
    190 H372       86.2193   64.3549   37.5511 T4         2 LUT      0.089537
    191 H371       86.1152   62.9525   36.3892 T4         2 LUT      0.089537
    192 H363       88.5949   65.5978   36.3427 T4         2 LUT      0.089537
    193 H362       87.7790   66.6445   35.1576 T4         2 LUT      0.089537
    194 H361       87.1088   66.5832   36.6791 T4         2 LUT      0.089537
    195 H222       88.3813   63.8645   34.5027 U2         2 LUT      0.127376
    196 H221       86.7675   63.3831   33.8595 U2         2 LUT      0.127376
    197 H203       71.5726   60.6025   41.1579 R7         2 LUT      0.087068
    198 H202       71.6649   61.9936   40.1423 R7         2 LUT      0.087068
    199 H201       73.0286   61.0519   40.4902 R7         2 LUT      0.087068
    200 H193       68.4267   59.8082   44.2044 R4         2 LUT      0.089716
    201 H192       69.4833   58.9156   45.2938 R4         2 LUT      0.089716
    202 H191       67.8559   59.3123   45.7534 R4         2 LUT      0.089716
    203 H183       65.8224   62.3883   46.7706 R1         2 LUT      0.094572
    204 H182       64.9237   63.6670   47.6467 R1         2 LUT      0.094572
    205 H181       66.6592   63.8760   47.4454 R1         2 LUT      0.094572
    206 H173       69.3131   60.2802   51.5180 T4         2 LUT      0.093752
    207 H172       68.8278   59.4608   50.0684 T4         2 LUT      0.093752
    208 H171       69.6576   60.9052   49.8447 T4         2 LUT      0.093752
    209 H163       65.4364   60.6903   51.4255 T4         2 LUT      0.093752
    210 H162       66.3914   59.2090   51.2380 T4         2 LUT      0.093752
    211 H161       66.7101   60.2482   52.5030 T4         2 LUT      0.093752
    212 HO3        65.9206   64.8166   52.3822 Q1         2 LUT      0.300121
    213 H8         68.8469   62.5273   47.2625 U7         2 LUT      0.080784
    214 H7         67.4784   59.8686   47.6547 U6         2 LUT      0.042190
    215 H42        64.5680   62.6656   50.3791 U5         2 LUT      0.145166
    216 H41        65.4886   64.1396   49.7588 U5         2 LUT      0.145166
    217 H35        76.3186   64.2423   42.1671 T3         2 LUT      0.077919
    218 H34        76.8779   63.2347   39.3403 T2         2 LUT      0.073626
    219 H32        78.7726   63.9835   38.3736 T1         2 LUT      0.092510
    220 H31        80.7259   65.6914   39.9007 U9         2 LUT      0.070048
    221 H30        80.7682   64.4849   37.1351 U8         2 LUT      0.085442
    222 H3         65.8632   62.6619   52.3028 U3         2 LUT     -0.031596
    223 H28        82.5978   64.9183   35.6299 U7         2 LUT      0.084728
    224 H27        84.8646   66.3923   36.7570 U6         2 LUT      0.087291
    225 H26        84.7569   64.1402   34.7566 Q6         2 LUT      0.075325
    226 H24        86.2373   66.3455   31.7720 Q5         2 LUT      0.094482
    227 H23        88.2624   65.7009   33.2070 U3         2 LUT     -0.024869
    228 H22        68.1633   62.2188   52.0399 U2         2 LUT      0.127376
    229 H21        68.4084   63.0877   50.4559 U2         2 LUT      0.127376
    230 H15        74.8234   62.6349   40.1268 T3         2 LUT      0.093200
    231 H14        74.0084   63.6049   42.8808 T2         2 LUT      0.068865
    232 H12        72.2061   63.2054   43.8772 T1         2 LUT      0.095507
    233 H11        70.3445   60.8049   43.0673 U9         2 LUT      0.068930
    234 H10        70.5334   62.7309   45.4654 U8         2 LUT      0.083911
    235 H1         87.9962   64.4592   31.0548 Q1         2 LUT      0.297311
@<TRIPOS>BOND
    1     6     1 1
    2     7     2 1
    3     8     3 1
    4     9     4 1
    5    11     4 1
    6    12     6 1
    7    13     9 1
    8    16     9 1
    9    25     5 1
   10    25    16 1
   11    26    10 1
   12    26    17 1
   13    27    18 1
   14    28    14 1
   15    28    19 1
   16    29    12 1
   17    30    13 1
   18    31    24 1
   19    32     1 1
   20    32    25 1
   21    33    21 1
   22    33    26 1
   23    34    22 1
   24    34    27 1
   25    35    23 1
   26    35    28 1
   27    36    12 1
   28    36    24 1
   29    37    13 1
   30    37    15 1
   31    38    31 1
   32    39    20 1
   33    39    32 1
   34    40     2 1
   35    40    33 1
   36    41     3 1
   37    41    34 1
   38    42     4 1
   39    42    35 1
   40    43    38 1
   41    44     5 1
   42    44    17 1
   43    44    39 1
   44    45    10 1
   45    45    18 1
   46    45    40 1
   47    46    19 1
   48    46    41 1
   49    47    14 1
   50    47    16 1
   51    47    42 1
   52    48    38 1
   53    49    48 1
   54    50    49 1
   55    51    50 1
   56    52    51 1
   57    53    51 1
   58    54    53 1
   59    55    54 1
   60    56    55 1
   61    57    56 1
   62    58    56 1
   63    59    58 1
   64    60    59 1
   65    61    60 1
   66    62    61 1
   67    63    61 1
   68    64    27 1
   69    64    46 1
   70    65     5 1
   71    65    10 1
   72    65    64 1
   73    65    14 1
   74    66    23 1
   75    67    23 1
   76    68    23 1
   77    69    22 1
   78    70    22 1
   79    71    22 1
   80    72    21 1
   81    73    21 1
   82    74    21 1
   83    75    20 1
   84    76    20 1
   85    77    20 1
   86    78    15 1
   87    79    15 1
   88    80    15 1
   89    81     8 1
   90    82     8 1
   91    83     8 1
   92    84     7 1
   93    85     7 1
   94    86     6 1
   95    87     6 1
   96    88     3 1
   97    89     3 1
   98    90     1 1
   99    91     1 1
  100    92    63 1
  101    93    63 1
  102    94    63 1
  103    95    62 1
  104    96    62 1
  105    97    62 1
  106    98    60 1
  107    99    60 1
  108   100    59 1
  109   101    59 1
  110   102    58 1
  111   103    58 1
  112   104    57 1
  113   105    57 1
  114   106    57 1
  115   107    55 1
  116   108    55 1
  117   109    54 1
  118   110    54 1
  119   111    53 1
  120   112    53 1
  121   113    19 1
  122   114    18 1
  123   115    17 1
  124   116     9 1
  125   117     2 1
  126   118    52 1
  127   119    52 1
  128   120    52 1
  129   121    51 1
  130   122    50 1
  131   123    50 1
  132   124    49 1
  133   125    49 1
  134   126    48 1
  135   127    48 1
  136   128    43 1
  137   129    43 1
  138   130    43 1
  139   131    39 1
  140   132    32 1
  141   133    31 1
  142   134    61 1
  143   135    56 1
  144   136    24 1
  145   137    24 1
  146   139   138 1
  147   140   139 1
  148   141   140 1
  149   142   140 1
  150   143   142 1
  151   144   138 1
  152   144   143 1
  153   145   144 1
  154   146   145 1
  155   147   146 1
  156   148   147 1
  157   149   148 1
  158   150   149 1
  159   151   150 1
  160   152   151 1
  161   153   152 1
  162   154   138 1
  163   155   138 1
  164   156   143 1
  165   157   147 1
  166   158   151 1
  167   160   159 1
  168   161   160 1
  169   162   161 1
  170   163   161 1
  171   164   163 1
  172   165   159 1
  173   165   164 1
  174   166   165 1
  175   167   166 1
  176   168   167 1
  177   169   168 1
  178   170   169 1
  179   171   170 1
  180   172   171 1
  181   173   172 1
  182   174   153 1
  183   174   173 1
  184   175   159 1
  185   176   159 1
  186   177   164 1
  187   178   168 1
  188   179   172 1
  189   180   179 1
  190   181   179 1
  191   182   179 1
  192   183   178 1
  193   184   178 1
  194   185   178 1
  195   186   177 1
  196   187   177 1
  197   188   177 1
  198   189   176 1
  199   190   176 1
  200   191   176 1
  201   192   175 1
  202   193   175 1
  203   194   175 1
  204   195   160 1
  205   196   160 1
  206   197   158 1
  207   198   158 1
  208   199   158 1
  209   200   157 1
  210   201   157 1
  211   202   157 1
  212   203   156 1
  213   204   156 1
  214   205   156 1
  215   206   155 1
  216   207   155 1
  217   208   155 1
  218   209   154 1
  219   210   154 1
  220   211   154 1
  221   212   141 1
  222   213   146 1
  223   214   145 1
  224   215   142 1
  225   216   142 1
  226   217   174 1
  227   218   173 1
  228   219   171 1
  229   220   170 1
  230   221   169 1
  231   222   140 1
  232   223   167 1
  233   224   166 1
  234   225   165 1
  235   226   163 1
  236   227   161 1
  237   228   139 1
  238   229   139 1
  239   230   153 1
  240   231   152 1
  241   232   150 1
  242   233   149 1
  243   234   148 1
  244   235   162 1
  245   65    153 1
  246   65    174 1
@<TRIPOS>SUBSTRUCTURE
      1 CLA               1 ****               0 ****  **** 
      2 LUT             138 ****               0 ****  **** 
