@<TRIPOS>MOLECULE
Cpptraj generated mol2 file.
  235   246     2     0     0
SMALL
USER_CHARGES


@<TRIPOS>ATOM
      1 CAA        77.6814   57.8587   33.6155 a2         1 CLA     -0.055900
      2 CAB        77.4199   60.9649   42.8203 c8         1 CLA     -0.148500
      3 CAC        70.3381   57.1017   41.4991 a2         1 CLA     -0.012600
      4 CAD        73.3490   55.3079   34.3468 ck         1 CLA      0.398800
      5 NA         76.5429   58.0597   36.8345 ns         1 CLA     -0.225500
      6 CBA        78.9518   57.7607   32.6901 a2         1 CLA     -0.135000
      7 CBB        78.5601   60.7287   43.5285 c0         1 CLA     -0.395200
      8 CBC        70.3777   55.6614   41.9908 a3         1 CLA     -0.037700
      9 CBD        74.8214   55.7572   34.2561 a1         1 CLA     -0.053900
     10 NB         76.2136   59.5128   39.5850 nm         1 CLA     -0.295700
     11 OBD        72.7194   54.7104   33.4946 o2         1 CLA     -0.494600
     12 CGA        79.4910   56.3865   32.3723 c4         1 CLA      0.827000
     13 CGD        75.7669   54.5775   34.0516 c4         1 CLA      0.655300
     14 ND         73.6911   57.1124   37.3769 nm         1 CLA     -0.291600
     15 CED        76.7719   52.5114   34.7094 a3         1 CLA      0.005400
     16 CHA        75.2097   56.6488   35.4286 cs         1 CLA     -0.123800
     17 CHB        78.1792   59.4292   38.1079 aa         1 CLA     -0.291900
     18 CHC        74.8932   59.3931   41.6344 aa         1 CLA     -0.090400
     19 CHD        71.7126   56.9254   38.8156 aa         1 CLA     -0.052000
     20 CMA        79.8890   57.1041   36.6114 a3         1 CLA     -0.230700
     21 CMB        79.5829   61.1896   40.3648 a3         1 CLA     -0.180800
     22 CMC        72.3862   58.6134   43.5579 a3         1 CLA     -0.134000
     23 CMD        70.5232   55.2633   36.3093 a3         1 CLA     -0.141100
     24 C1         80.4831   54.4066   33.3702 a2         1 CLA      0.023000
     25 C1A        76.4341   57.3182   35.7227 ac         1 CLA     -0.015100
     26 C1B        77.5441   59.8194   39.2569 cr         1 CLA      0.054700
     27 C1C        73.7314   58.7140   41.2407 cn         1 CLA     -0.005600
     28 C1D        72.4149   56.5595   37.6562 ap         1 CLA     -0.047300
     29 O1A        79.4287   55.7934   31.3118 o2         1 CLA     -0.610800
     30 O1D        76.5330   54.5996   33.0825 o2         1 CLA     -0.558200
     31 C2         81.3744   54.0827   34.5376 c8         1 CLA     -0.325100
     32 C2A        77.8738   57.2590   34.9749 a1         1 CLA      0.098600
     33 C2B        78.1791   60.5900   40.3207 cb         1 CLA      0.088500
     34 C2C        72.6126   58.3415   42.1174 cb         1 CLA      0.053700
     35 C2D        71.8215   55.8779   36.5276 cb         1 CLA      0.058900
     36 O2A        80.0001   55.7799   33.5091 o1         1 CLA     -0.437200
     37 O2D        75.8224   53.6150   35.0385 o1         1 CLA     -0.357600
     38 C3         82.1442   52.9899   34.7576 c5         1 CLA      0.031200
     39 C3A        78.7565   58.0056   35.9859 a1         1 CLA      0.166800
     40 C3B        77.2543   60.5162   41.4395 cb         1 CLA      0.035000
     41 C3C        71.7029   57.6872   41.2250 cb         1 CLA     -0.089900
     42 C3D        72.9227   55.8235   35.6329 cb         1 CLA     -0.035900
     43 C4         81.5760   51.6854   35.2913 a3         1 CLA     -0.053300
     44 C4A        77.7814   58.5816   37.0166 ac         1 CLA      0.001800
     45 C4B        76.0499   59.7979   40.9371 cn         1 CLA     -0.020900
     46 C4C        72.3031   57.6195   39.8649 cr         1 CLA     -0.044400
     47 C4D        73.9892   56.6023   36.1718 c6         1 CLA     -0.046000
     48 C5         83.6227   53.0883   34.4369 a2         1 CLA     -0.070400
     49 C6         84.4006   54.2050   35.1019 a2         1 CLA      0.043900
     50 C7         84.4505   54.1783   36.6404 a2         1 CLA     -0.150000
     51 C8         85.2809   55.2487   37.4143 a1         1 CLA      0.064200
     52 C9         86.8238   55.0282   37.0725 a3         1 CLA     -0.259300
     53 C10        85.0189   55.2505   39.0181 a2         1 CLA     -0.071900
     54 C11        83.5675   55.6532   39.5283 a2         1 CLA      0.014500
     55 C12        83.4931   56.2593   40.9800 a2         1 CLA     -0.112100
     56 C13        82.0730   56.4903   41.5882 a1         1 CLA      0.089200
     57 C14        81.0961   57.2814   40.6024 a3         1 CLA     -0.239100
     58 C15        82.1731   57.2595   42.9824 a2         1 CLA     -0.102200
     59 C16        82.5320   58.7205   42.8961 a2         1 CLA      0.023900
     60 C17        82.9226   59.1881   44.3347 a2         1 CLA     -0.105700
     61 C18        83.3121   60.6837   44.6746 a1         1 CLA      0.206800
     62 C19        84.4434   61.1716   43.8374 a3         1 CLA     -0.280100
     63 C20        82.0175   61.5348   44.5843 a3         1 CLA     -0.280100
     64 NC         73.4460   58.3612   39.8977 nx         1 CLA     -0.309200
     65 MG         74.8773   58.3573   38.3844 mg         1 CLA      0.895000
     66 HMD3       70.1620   54.6096   37.1066 dc         1 CLA      0.064300
     67 HMD2       69.8588   56.0934   36.2131 dc         1 CLA      0.064300
     68 HMD1       70.6961   54.7050   35.3717 dc         1 CLA      0.064300
     69 HMC3       73.2893   58.8541   44.0805 dc         1 CLA      0.052100
     70 HMC2       71.7562   59.4537   43.8436 dc         1 CLA      0.052100
     71 HMC1       71.9528   57.7170   44.0494 dc         1 CLA      0.052100
     72 HMB3       80.3169   60.3228   40.3479 dc         1 CLA      0.063600
     73 HMB2       79.7093   61.7462   39.4033 dc         1 CLA      0.063600
     74 HMB1       79.7122   61.8185   41.2597 dc         1 CLA      0.063600
     75 HMA3       79.5176   56.1097   36.8878 dc         1 CLA      0.058300
     76 HMA2       80.7109   57.1557   35.9121 dc         1 CLA      0.058300
     77 HMA1       80.4300   57.6880   37.4584 dc         1 CLA      0.058300
     78 HED3       76.4608   51.7513   35.4259 dc         1 CLA      0.079300
     79 HED2       76.5179   52.1900   33.6843 dc         1 CLA      0.079300
     80 HED1       77.8531   52.6937   34.7957 dc         1 CLA      0.079300
     81 HBC3       69.4202   55.3422   42.3579 dc         1 CLA      0.016300
     82 HBC2       70.7241   55.0811   41.0844 dc         1 CLA      0.016300
     83 HBC1       71.1514   55.6571   42.7374 dc         1 CLA      0.016300
     84 HBB2       78.6945   61.0497   44.5275 da         1 CLA      0.183000
     85 HBB1       79.3999   60.1122   43.0280 da         1 CLA      0.183000
     86 HBA2       78.9003   58.3885   31.8143 dc         1 CLA      0.029400
     87 HBA1       79.6304   58.2919   33.3437 dc         1 CLA      0.029400
     88 HAC2       69.9539   57.6332   42.3514 dc         1 CLA      0.029300
     89 HAC1       69.6336   57.2824   40.7124 dc         1 CLA      0.029300
     90 HAA2       76.8273   57.4317   33.0869 dc         1 CLA      0.028700
     91 HAA1       77.3810   58.9457   33.7013 dc         1 CLA      0.028700
     92 H203       82.3521   62.5684   44.8103 dc         1 CLA      0.065600
     93 H202       81.4639   61.4707   43.6563 dc         1 CLA      0.065600
     94 H201       81.3027   61.1496   45.3193 dc         1 CLA      0.065600
     95 H193       84.3036   61.0063   42.7839 dc         1 CLA      0.065600
     96 H192       84.5293   62.1999   44.0340 dc         1 CLA      0.065600
     97 H191       85.3833   60.6966   44.1685 dc         1 CLA      0.065600
     98 H172       81.9564   59.1334   44.8590 dc         1 CLA      0.027600
     99 H171       83.6537   58.5386   44.8499 dc         1 CLA      0.027600
    100 H162       83.3971   58.8789   42.2899 dc         1 CLA      0.002900
    101 H161       81.7072   59.3430   42.5370 dc         1 CLA      0.002900
    102 H152       81.2440   57.2415   43.4602 dc         1 CLA      0.029100
    103 H151       82.9209   56.8106   43.6116 dc         1 CLA      0.029100
    104 H143       80.0751   57.4960   41.0143 dc         1 CLA      0.063600
    105 H142       81.5141   58.2646   40.4061 dc         1 CLA      0.063600
    106 H141       80.9530   56.6458   39.6866 dc         1 CLA      0.063600
    107 H122       84.0764   55.7135   41.7174 dc         1 CLA      0.032500
    108 H121       83.9435   57.2496   40.8638 dc         1 CLA      0.032500
    109 H112       83.1537   56.3240   38.7559 dc         1 CLA      0.006600
    110 H111       82.8731   54.7947   39.5378 dc         1 CLA      0.006600
    111 H102       85.2768   54.3215   39.4588 dc         1 CLA      0.024100
    112 H101       85.6640   56.0654   39.4160 dc         1 CLA      0.024100
    113 HHD        70.6982   56.5062   38.9513 da         1 CLA      0.174300
    114 HHC        74.9652   59.6560   42.6809 da         1 CLA      0.136800
    115 HHB        79.1324   59.9544   37.8925 da         1 CLA      0.138300
    116 HBD        74.9616   56.4104   33.3945 dc         1 CLA      0.107700
    117 HAB        76.5809   61.5083   43.2692 da         1 CLA      0.155200
    118 H93        86.9941   55.1432   35.9990 dc         1 CLA      0.069500
    119 H92        87.3840   55.7714   37.7082 dc         1 CLA      0.069500
    120 H91        87.0924   54.0334   37.4484 dc         1 CLA      0.069500
    121 H8         85.0388   56.2578   37.1154 dc         1 CLA      0.029300
    122 H72        83.4243   54.2072   37.0138 dc         1 CLA      0.044400
    123 H71        84.8915   53.2225   36.8867 dc         1 CLA      0.044400
    124 H62        85.4233   54.2167   34.7625 dc         1 CLA      0.015600
    125 H61        83.9350   55.1369   34.9202 dc         1 CLA      0.015600
    126 H52        83.9822   52.0615   34.6167 dc         1 CLA      0.033200
    127 H51        83.7329   53.2132   33.3128 dc         1 CLA      0.033200
    128 H43        80.4995   51.5930   35.2367 dc         1 CLA      0.037000
    129 H42        82.0723   50.9628   34.5918 dc         1 CLA      0.037000
    130 H41        81.8467   51.5480   36.3545 dc         1 CLA      0.037000
    131 H3A        79.1476   58.9154   35.5159 dc         1 CLA      0.041100
    132 H2A        78.1281   56.2497   34.7907 dc         1 CLA      0.083100
    133 H2         81.4434   54.7402   35.3835 da         1 CLA      0.180900
    134 H18        83.6233   60.7811   45.7000 dc         1 CLA     -0.003900
    135 H13        81.6275   55.5263   41.7706 dc         1 CLA      0.019700
    136 H12        79.6588   53.8051   33.2840 dc         1 CLA      0.120400
    137 H11        81.0368   54.3868   32.4326 dc         1 CLA      0.120400
    138 C1         66.9794   61.1770   49.9222 Z1         2 LUT      0.509236
    139 C2         67.0462   62.4628   50.9160 Z2         2 LUT     -0.434695
    140 C3         65.7034   63.1399   50.9767 Z3         2 LUT      0.437453
    141 O3         66.0360   64.4731   51.3493 S1         2 LUT     -0.547129
    142 C4         64.8982   63.1642   49.6856 Z4         2 LUT     -0.468603
    143 C5         65.6891   62.6742   48.4608 Z5         2 LUT      0.279246
    144 C6         66.5325   61.5932   48.5325 Z6         2 LUT     -0.305473
    145 C7         67.4021   61.0468   47.4347 Z7         2 LUT      0.069402
    146 C8         68.1201   61.7383   46.5720 Z8         2 LUT     -0.191631
    147 C9         68.7292   61.2826   45.3385 Z9         2 LUT      0.196698
    148 C10        69.6634   62.0394   44.6984 Y1         2 LUT     -0.208611
    149 C11        70.3601   61.8155   43.4792 Y2         2 LUT      0.030784
    150 C12        71.4119   62.5702   43.0379 Y3         2 LUT     -0.220316
    151 C13        72.2411   62.4173   41.7965 Y4         2 LUT      0.215937
    152 C14        73.4507   62.9580   41.7810 Y5         2 LUT     -0.185793
    153 C15        74.5015   62.8208   40.7362 Y6         2 LUT     -0.057835
    154 C16        65.8834   60.3055   50.5617 Y7         2 LUT     -0.405615
    155 C17        68.3047   60.4803   50.1091 Y7         2 LUT     -0.405615
    156 C18        65.3992   63.5661   47.2633 Y9         2 LUT     -0.369639
    157 C19        68.2932   59.9511   44.6972 W1         2 LUT     -0.333362
    158 C20        71.6353   61.7079   40.6578 W2         2 LUT     -0.323439
    159 C21        86.0357   64.2234   34.3712 Z1         2 LUT      0.406104
    160 C22        86.7634   63.6643   33.1683 Z2         2 LUT     -0.404965
    161 C23        86.9759   64.6209   32.0891 Z3         2 LUT      0.391255
    162 O23        87.3985   63.9077   30.9080 S1         2 LUT     -0.528210
    163 C24        85.6671   65.3817   31.7839 W6         2 LUT     -0.258361
    164 C25        84.5682   65.4634   32.6181 Z5         2 LUT      0.133546
    165 C26        84.5362   64.5444   33.9043 W8         2 LUT     -0.147008
    166 C27        83.7744   65.1584   35.0352 Z7         2 LUT      0.023843
    167 C28        82.7149   64.5809   35.6460 Z8         2 LUT     -0.216987
    168 C29        81.9241   65.1981   36.6797 Z9         2 LUT      0.206524
    169 C30        80.8229   64.4510   37.0896 Y1         2 LUT     -0.215556
    170 C31        79.9070   64.6510   38.0984 Y2         2 LUT      0.025142
    171 C32        78.7138   64.0578   38.4033 Y3         2 LUT     -0.212209
    172 C33        77.7983   64.3513   39.4778 Y4         2 LUT      0.240937
    173 C34        76.7055   63.5624   39.6782 Y5         2 LUT     -0.218862
    174 C35        75.6510   63.5647   40.6558 Y6         2 LUT     -0.023547
    175 C36        86.8559   65.3514   35.0519 Y7         2 LUT     -0.393485
    176 C37        86.1461   63.0870   35.3849 Y7         2 LUT     -0.393485
    177 C38        83.2100   66.0801   32.3710 Y9         2 LUT     -0.387526
    178 C39        82.2951   66.5049   37.3196 W1         2 LUT     -0.322618
    179 C40        78.3859   65.2990   40.6189 W2         2 LUT     -0.358472
    180 H403       78.5625   66.3079   40.2844 R7         2 LUT      0.097720
    181 H402       77.9171   65.3385   41.5581 R7         2 LUT      0.097720
    182 H401       79.4436   64.8738   40.8884 R7         2 LUT      0.097720
    183 H393       81.9190   66.7178   38.2725 R4         2 LUT      0.082505
    184 H392       83.3862   66.5817   37.4812 R4         2 LUT      0.082505
    185 H391       82.0695   67.4187   36.8284 R4         2 LUT      0.082505
    186 H383       83.1806   66.4851   31.4132 R1         2 LUT      0.104030
    187 H382       82.4484   65.3108   32.5643 R1         2 LUT      0.104030
    188 H381       82.8247   66.9152   33.0123 R1         2 LUT      0.104030
    189 H373       85.5155   62.2720   35.1424 T4         2 LUT      0.089537
    190 H372       87.1280   62.7583   35.6281 T4         2 LUT      0.089537
    191 H371       85.6846   63.3827   36.3335 T4         2 LUT      0.089537
    192 H363       87.1471   66.1712   34.4287 T4         2 LUT      0.089537
    193 H362       86.3443   65.7933   35.9070 T4         2 LUT      0.089537
    194 H361       87.8379   64.9348   35.3217 T4         2 LUT      0.089537
    195 H222       87.8118   63.2820   33.3801 U2         2 LUT      0.127376
    196 H221       86.2056   62.7592   32.7392 U2         2 LUT      0.127376
    197 H203       71.5098   62.4359   39.8667 R7         2 LUT      0.087068
    198 H202       72.2093   60.8864   40.2945 R7         2 LUT      0.087068
    199 H201       70.5403   61.5341   40.7455 R7         2 LUT      0.087068
    200 H193       67.3908   60.0902   44.1453 R4         2 LUT      0.089716
    201 H192       69.0495   59.5967   44.0094 R4         2 LUT      0.089716
    202 H191       68.0995   59.1698   45.3998 R4         2 LUT      0.089716
    203 H183       65.6485   62.9351   46.4027 R1         2 LUT      0.094572
    204 H182       64.3586   63.8117   47.2248 R1         2 LUT      0.094572
    205 H181       66.0314   64.4565   47.2959 R1         2 LUT      0.094572
    206 H173       69.1432   60.9773   49.6470 T4         2 LUT      0.093752
    207 H172       68.5051   60.3026   51.2420 T4         2 LUT      0.093752
    208 H171       68.3829   59.5329   49.6302 T4         2 LUT      0.093752
    209 H163       65.8328   60.2924   51.6691 T4         2 LUT      0.093752
    210 H162       64.8777   60.5508   50.1835 T4         2 LUT      0.093752
    211 H161       66.0828   59.2594   50.2218 T4         2 LUT      0.093752
    212 HO3        65.3812   64.9315   51.8793 Q1         2 LUT      0.300121
    213 H8         68.0917   62.8173   46.7047 U7         2 LUT      0.080784
    214 H7         67.4308   59.9471   47.2609 U6         2 LUT      0.042190
    215 H42        64.0055   62.5078   49.9071 U5         2 LUT      0.145166
    216 H41        64.3642   64.1338   49.5326 U5         2 LUT      0.145166
    217 H35        75.8648   64.2932   41.4117 T3         2 LUT      0.077919
    218 H34        76.5412   62.7800   38.8881 T2         2 LUT      0.073626
    219 H32        78.4416   63.1873   37.7938 T1         2 LUT      0.092510
    220 H31        80.2705   65.4702   38.7019 U9         2 LUT      0.070048
    221 H30        80.5978   63.5031   36.5977 U8         2 LUT      0.085442
    222 H3         65.0799   62.6621   51.7955 U3         2 LUT     -0.031596
    223 H28        82.2823   63.7260   35.2122 U7         2 LUT      0.084728
    224 H27        84.0445   66.1058   35.4178 U6         2 LUT      0.087291
    225 H26        83.8811   63.8105   33.5087 Q6         2 LUT      0.075325
    226 H24        85.5608   65.9285   30.8459 Q5         2 LUT      0.094482
    227 H23        87.8303   65.2505   32.4850 U3         2 LUT     -0.024869
    228 H22        67.4169   62.2965   51.9010 U2         2 LUT      0.127376
    229 H21        67.6630   63.1461   50.4587 U2         2 LUT      0.127376
    230 H15        74.3700   62.1767   39.8891 T3         2 LUT      0.093200
    231 H14        73.6966   63.5175   42.6510 T2         2 LUT      0.068865
    232 H12        71.7131   63.3861   43.8273 T1         2 LUT      0.095507
    233 H11        70.1054   60.9114   42.8708 U9         2 LUT      0.068930
    234 H10        69.9845   62.9247   45.3067 U8         2 LUT      0.083911
    235 H1         87.3568   64.3841   30.0547 Q1         2 LUT      0.297311
@<TRIPOS>BOND
    1     6     1 1
    2     7     2 1
    3     8     3 1
    4     9     4 1
    5    11     4 1
    6    12     6 1
    7    13     9 1
    8    16     9 1
    9    25     5 1
   10    25    16 1
   11    26    10 1
   12    26    17 1
   13    27    18 1
   14    28    14 1
   15    28    19 1
   16    29    12 1
   17    30    13 1
   18    31    24 1
   19    32     1 1
   20    32    25 1
   21    33    21 1
   22    33    26 1
   23    34    22 1
   24    34    27 1
   25    35    23 1
   26    35    28 1
   27    36    12 1
   28    36    24 1
   29    37    13 1
   30    37    15 1
   31    38    31 1
   32    39    20 1
   33    39    32 1
   34    40     2 1
   35    40    33 1
   36    41     3 1
   37    41    34 1
   38    42     4 1
   39    42    35 1
   40    43    38 1
   41    44     5 1
   42    44    17 1
   43    44    39 1
   44    45    10 1
   45    45    18 1
   46    45    40 1
   47    46    19 1
   48    46    41 1
   49    47    14 1
   50    47    16 1
   51    47    42 1
   52    48    38 1
   53    49    48 1
   54    50    49 1
   55    51    50 1
   56    52    51 1
   57    53    51 1
   58    54    53 1
   59    55    54 1
   60    56    55 1
   61    57    56 1
   62    58    56 1
   63    59    58 1
   64    60    59 1
   65    61    60 1
   66    62    61 1
   67    63    61 1
   68    64    27 1
   69    64    46 1
   70    65     5 1
   71    65    10 1
   72    65    64 1
   73    65    14 1
   74    66    23 1
   75    67    23 1
   76    68    23 1
   77    69    22 1
   78    70    22 1
   79    71    22 1
   80    72    21 1
   81    73    21 1
   82    74    21 1
   83    75    20 1
   84    76    20 1
   85    77    20 1
   86    78    15 1
   87    79    15 1
   88    80    15 1
   89    81     8 1
   90    82     8 1
   91    83     8 1
   92    84     7 1
   93    85     7 1
   94    86     6 1
   95    87     6 1
   96    88     3 1
   97    89     3 1
   98    90     1 1
   99    91     1 1
  100    92    63 1
  101    93    63 1
  102    94    63 1
  103    95    62 1
  104    96    62 1
  105    97    62 1
  106    98    60 1
  107    99    60 1
  108   100    59 1
  109   101    59 1
  110   102    58 1
  111   103    58 1
  112   104    57 1
  113   105    57 1
  114   106    57 1
  115   107    55 1
  116   108    55 1
  117   109    54 1
  118   110    54 1
  119   111    53 1
  120   112    53 1
  121   113    19 1
  122   114    18 1
  123   115    17 1
  124   116     9 1
  125   117     2 1
  126   118    52 1
  127   119    52 1
  128   120    52 1
  129   121    51 1
  130   122    50 1
  131   123    50 1
  132   124    49 1
  133   125    49 1
  134   126    48 1
  135   127    48 1
  136   128    43 1
  137   129    43 1
  138   130    43 1
  139   131    39 1
  140   132    32 1
  141   133    31 1
  142   134    61 1
  143   135    56 1
  144   136    24 1
  145   137    24 1
  146   139   138 1
  147   140   139 1
  148   141   140 1
  149   142   140 1
  150   143   142 1
  151   144   138 1
  152   144   143 1
  153   145   144 1
  154   146   145 1
  155   147   146 1
  156   148   147 1
  157   149   148 1
  158   150   149 1
  159   151   150 1
  160   152   151 1
  161   153   152 1
  162   154   138 1
  163   155   138 1
  164   156   143 1
  165   157   147 1
  166   158   151 1
  167   160   159 1
  168   161   160 1
  169   162   161 1
  170   163   161 1
  171   164   163 1
  172   165   159 1
  173   165   164 1
  174   166   165 1
  175   167   166 1
  176   168   167 1
  177   169   168 1
  178   170   169 1
  179   171   170 1
  180   172   171 1
  181   173   172 1
  182   174   153 1
  183   174   173 1
  184   175   159 1
  185   176   159 1
  186   177   164 1
  187   178   168 1
  188   179   172 1
  189   180   179 1
  190   181   179 1
  191   182   179 1
  192   183   178 1
  193   184   178 1
  194   185   178 1
  195   186   177 1
  196   187   177 1
  197   188   177 1
  198   189   176 1
  199   190   176 1
  200   191   176 1
  201   192   175 1
  202   193   175 1
  203   194   175 1
  204   195   160 1
  205   196   160 1
  206   197   158 1
  207   198   158 1
  208   199   158 1
  209   200   157 1
  210   201   157 1
  211   202   157 1
  212   203   156 1
  213   204   156 1
  214   205   156 1
  215   206   155 1
  216   207   155 1
  217   208   155 1
  218   209   154 1
  219   210   154 1
  220   211   154 1
  221   212   141 1
  222   213   146 1
  223   214   145 1
  224   215   142 1
  225   216   142 1
  226   217   174 1
  227   218   173 1
  228   219   171 1
  229   220   170 1
  230   221   169 1
  231   222   140 1
  232   223   167 1
  233   224   166 1
  234   225   165 1
  235   226   163 1
  236   227   161 1
  237   228   139 1
  238   229   139 1
  239   230   153 1
  240   231   152 1
  241   232   150 1
  242   233   149 1
  243   234   148 1
  244   235   162 1
  245   65    153 1
  246   65    174 1
@<TRIPOS>SUBSTRUCTURE
      1 CLA               1 ****               0 ****  **** 
      2 LUT             138 ****               0 ****  **** 
