@<TRIPOS>MOLECULE
Cpptraj generated mol2 file.
  235   246     2     0     0
SMALL
USER_CHARGES


@<TRIPOS>ATOM
      1 CAA        78.6213   56.5000   33.8622 a2         1 CLA     -0.055900
      2 CAB        79.4642   61.8715   41.9824 c8         1 CLA     -0.148500
      3 CAC        72.0654   58.3504   42.5260 a2         1 CLA     -0.012600
      4 CAD        74.4668   54.3854   35.5973 ck         1 CLA      0.398800
      5 NA         77.8486   57.6247   37.1221 ns         1 CLA     -0.225500
      6 CBA        79.7350   55.9570   32.9233 a2         1 CLA     -0.135000
      7 CBB        79.6328   61.3925   43.2315 c0         1 CLA     -0.395200
      8 CBC        71.9029   56.8567   42.8052 a3         1 CLA     -0.037700
      9 CBD        76.0389   54.6175   35.3050 a1         1 CLA     -0.053900
     10 NB         77.7661   59.7019   39.3958 nm         1 CLA     -0.295700
     11 OBD        73.7744   53.6295   34.9198 o2         1 CLA     -0.494600
     12 CGA        79.7787   54.4743   32.8965 c4         1 CLA      0.827000
     13 CGD        76.7504   53.2468   35.7354 c4         1 CLA      0.655300
     14 ND         75.0272   56.9038   38.0360 nm         1 CLA     -0.291600
     15 CED        76.4315   51.3715   37.2662 a3         1 CLA      0.005400
     16 CHA        76.4108   55.8105   36.1875 cs         1 CLA     -0.123800
     17 CHB        79.5670   59.2110   37.7721 aa         1 CLA     -0.291900
     18 CHC        76.6635   60.1624   41.5331 aa         1 CLA     -0.090400
     19 CHD        73.2012   57.2770   39.5694 aa         1 CLA     -0.052000
     20 CMA        81.0304   56.4894   36.7993 a3         1 CLA     -0.230700
     21 CMB        81.0867   61.4045   39.3143 a3         1 CLA     -0.180800
     22 CMC        74.5004   59.9796   43.7369 a3         1 CLA     -0.134000
     23 CMD        71.7100   55.2003   37.8578 a3         1 CLA     -0.141100
     24 C1         80.6829   52.6468   34.2296 a2         1 CLA      0.023000
     25 C1A        77.6333   56.5759   36.2878 ac         1 CLA     -0.015100
     26 C1B        78.9689   59.9780   38.8303 cr         1 CLA      0.054700
     27 C1C        75.5018   59.4128   41.4045 cn         1 CLA     -0.005600
     28 C1D        73.7640   56.6148   38.4599 ap         1 CLA     -0.047300
     29 O1A        79.4147   53.7375   31.9967 o2         1 CLA     -0.610800
     30 O1D        77.8408   52.8611   35.3580 o2         1 CLA     -0.558200
     31 C2         81.0279   52.4349   35.6267 c8         1 CLA     -0.325100
     32 C2A        78.8766   56.3525   35.4101 a1         1 CLA      0.098600
     33 C2B        79.7042   60.9245   39.6695 cb         1 CLA      0.088500
     34 C2C        74.4719   59.3375   42.3915 cb         1 CLA      0.053700
     35 C2D        73.1308   55.6615   37.6077 cb         1 CLA      0.058900
     36 O2A        80.5026   54.0716   34.0142 o1         1 CLA     -0.437200
     37 O2D        76.0453   52.6409   36.7195 o1         1 CLA     -0.357600
     38 C3         81.7142   51.3602   36.0873 c5         1 CLA      0.031200
     39 C3A        79.9351   57.3027   36.1472 a1         1 CLA      0.166800
     40 C3B        79.0234   61.0771   40.8358 cb         1 CLA      0.035000
     41 C3C        73.3925   58.5873   41.8238 cb         1 CLA     -0.089900
     42 C3D        74.1392   55.2578   36.7171 cb         1 CLA     -0.035900
     43 C4         80.9978   50.1126   36.5004 a3         1 CLA     -0.053300
     44 C4A        79.0773   58.1056   37.0396 ac         1 CLA      0.001800
     45 C4B        77.7664   60.2621   40.6212 cn         1 CLA     -0.020900
     46 C4C        73.8586   58.1260   40.5010 cr         1 CLA     -0.044400
     47 C4D        75.2656   56.0513   37.0017 c6         1 CLA     -0.046000
     48 C5         83.1868   51.5864   36.1023 a2         1 CLA     -0.070400
     49 C6         83.8956   52.9288   36.6078 a2         1 CLA      0.043900
     50 C7         83.9332   53.2450   38.0665 a2         1 CLA     -0.150000
     51 C8         84.7255   54.5123   38.3900 a1         1 CLA      0.064200
     52 C9         86.2602   54.4344   38.1316 a3         1 CLA     -0.259300
     53 C10        84.5126   55.1502   39.8821 a2         1 CLA     -0.071900
     54 C11        83.2062   55.8202   40.1138 a2         1 CLA      0.014500
     55 C12        83.1049   56.4228   41.5392 a2         1 CLA     -0.112100
     56 C13        81.7410   57.0590   41.8043 a1         1 CLA      0.089200
     57 C14        81.3368   58.1215   40.7488 a3         1 CLA     -0.239100
     58 C15        81.5828   57.5975   43.2086 a2         1 CLA     -0.102200
     59 C16        82.4876   58.6971   43.7344 a2         1 CLA      0.023900
     60 C17        82.1796   59.0006   45.2145 a2         1 CLA     -0.105700
     61 C18        83.0718   60.1365   45.7207 a1         1 CLA      0.206800
     62 C19        82.7841   60.4501   47.1922 a3         1 CLA     -0.280100
     63 C20        84.6546   60.0172   45.5101 a3         1 CLA     -0.280100
     64 NC         75.1355   58.6665   40.2524 nx         1 CLA     -0.309200
     65 MG         76.3405   58.4085   38.5863 mg         1 CLA      0.895000
     66 HMD3       70.9966   56.0215   37.9734 dc         1 CLA      0.064300
     67 HMD2       71.3783   54.5735   36.9175 dc         1 CLA      0.064300
     68 HMD1       71.5324   54.5386   38.6706 dc         1 CLA      0.064300
     69 HMC3       74.8008   59.3205   44.5974 dc         1 CLA      0.052100
     70 HMC2       75.1623   60.8282   43.6709 dc         1 CLA      0.052100
     71 HMC1       73.4821   60.3127   43.9438 dc         1 CLA      0.052100
     72 HMB3       81.0520   62.3973   39.7093 dc         1 CLA      0.063600
     73 HMB2       81.8381   60.8616   39.9535 dc         1 CLA      0.063600
     74 HMB1       81.3513   61.4063   38.2539 dc         1 CLA      0.063600
     75 HMA3       80.6329   55.9657   37.7006 dc         1 CLA      0.058300
     76 HMA2       81.5816   55.8534   36.1051 dc         1 CLA      0.058300
     77 HMA1       81.7109   57.2385   37.2030 dc         1 CLA      0.058300
     78 HED3       77.3590   51.5169   37.7351 dc         1 CLA      0.079300
     79 HED2       75.8497   51.0357   38.0735 dc         1 CLA      0.079300
     80 HED1       76.4960   50.6301   36.4356 dc         1 CLA      0.079300
     81 HBC3       70.9918   56.6753   43.4409 dc         1 CLA      0.016300
     82 HBC2       71.6460   56.1734   41.9659 dc         1 CLA      0.016300
     83 HBC1       72.8034   56.5428   43.3221 dc         1 CLA      0.016300
     84 HBB2       79.9515   61.9273   44.1580 da         1 CLA      0.183000
     85 HBB1       79.2312   60.3953   43.4017 da         1 CLA      0.183000
     86 HBA2       79.4688   56.3081   31.9860 dc         1 CLA      0.029400
     87 HBA1       80.7044   56.3156   33.1274 dc         1 CLA      0.029400
     88 HAC2       71.9316   58.9087   43.4660 dc         1 CLA      0.029300
     89 HAC1       71.2510   58.6710   41.8726 dc         1 CLA      0.029300
     90 HAA2       77.6847   56.0790   33.4876 dc         1 CLA      0.028700
     91 HAA1       78.5884   57.6193   33.7037 dc         1 CLA      0.028700
     92 H203       85.0026   59.0619   45.8189 dc         1 CLA      0.065600
     93 H202       84.8514   60.1014   44.4178 dc         1 CLA      0.065600
     94 H201       85.1266   60.8810   46.0012 dc         1 CLA      0.065600
     95 H193       83.2215   61.3388   47.6063 dc         1 CLA      0.065600
     96 H192       81.7106   60.6165   47.2625 dc         1 CLA      0.065600
     97 H191       82.9672   59.6596   47.8251 dc         1 CLA      0.065600
     98 H172       81.0762   59.3368   45.2693 dc         1 CLA      0.027600
     99 H171       82.2502   58.1517   45.8757 dc         1 CLA      0.027600
    100 H162       83.5015   58.3327   43.6534 dc         1 CLA      0.002900
    101 H161       82.4145   59.5484   43.1199 dc         1 CLA      0.002900
    102 H152       80.5747   57.8855   43.1664 dc         1 CLA      0.029100
    103 H151       81.7185   56.7825   43.9448 dc         1 CLA      0.029100
    104 H143       81.1345   57.6550   39.7435 dc         1 CLA      0.063600
    105 H142       80.4489   58.6883   41.0902 dc         1 CLA      0.063600
    106 H141       82.1327   58.8765   40.4752 dc         1 CLA      0.063600
    107 H122       83.2505   55.7136   42.3099 dc         1 CLA      0.032500
    108 H121       83.9411   57.1489   41.5737 dc         1 CLA      0.032500
    109 H112       83.1192   56.5498   39.2596 dc         1 CLA      0.006600
    110 H111       82.5063   54.9862   39.9546 dc         1 CLA      0.006600
    111 H102       84.5491   54.2931   40.5769 dc         1 CLA      0.024100
    112 H101       85.3291   55.8293   40.0973 dc         1 CLA      0.024100
    113 HHD        72.2256   57.0450   39.9778 da         1 CLA      0.174300
    114 HHC        76.9050   60.7317   42.4780 da         1 CLA      0.136800
    115 HHB        80.6449   59.5371   37.6602 da         1 CLA      0.138300
    116 HBD        76.1056   54.7265   34.2448 dc         1 CLA      0.107700
    117 HAB        79.6727   62.9023   41.7165 da         1 CLA      0.155200
    118 H93        86.4776   54.5274   37.0632 dc         1 CLA      0.069500
    119 H92        86.7558   55.2689   38.5994 dc         1 CLA      0.069500
    120 H91        86.6104   53.5082   38.5035 dc         1 CLA      0.069500
    121 H8         84.3931   55.3573   37.7275 dc         1 CLA      0.029300
    122 H72        82.8697   53.4875   38.3812 dc         1 CLA      0.044400
    123 H71        84.2429   52.4116   38.6685 dc         1 CLA      0.044400
    124 H62        84.9605   52.7558   36.3468 dc         1 CLA      0.015600
    125 H61        83.4056   53.6965   36.0373 dc         1 CLA      0.015600
    126 H52        83.6644   50.8556   36.7446 dc         1 CLA      0.033200
    127 H51        83.4567   51.2751   35.0758 dc         1 CLA      0.033200
    128 H43        81.2326   49.2110   35.9197 dc         1 CLA      0.037000
    129 H42        81.2287   49.8746   37.5533 dc         1 CLA      0.037000
    130 H41        79.9085   50.1365   36.3407 dc         1 CLA      0.037000
    131 H3A        80.3917   57.9124   35.4225 dc         1 CLA      0.041100
    132 H2A        79.1441   55.3429   35.6069 dc         1 CLA      0.083100
    133 H2         80.6265   53.1889   36.3644 da         1 CLA      0.180900
    134 H18        82.6455   61.0320   45.2235 dc         1 CLA     -0.003900
    135 H13        81.0166   56.1725   41.7187 dc         1 CLA      0.019700
    136 H12        79.8435   52.1614   33.7858 dc         1 CLA      0.120400
    137 H11        81.4678   52.2567   33.5832 dc         1 CLA      0.120400
    138 C1         67.9451   60.9095   48.9010 Z1         2 LUT      0.509236
    139 C2         66.6330   60.5709   49.6897 Z2         2 LUT     -0.434695
    140 C3         65.9508   61.7846   50.2823 Z3         2 LUT      0.437453
    141 O3         66.0305   61.7537   51.6939 S1         2 LUT     -0.547129
    142 C4         66.4579   63.0982   49.7686 Z4         2 LUT     -0.468603
    143 C5         66.9433   63.0733   48.3359 Z5         2 LUT      0.279246
    144 C6         67.7505   62.0250   47.9025 Z6         2 LUT     -0.305473
    145 C7         67.9157   61.6692   46.4550 Z7         2 LUT      0.069402
    146 C8         69.0908   61.8364   45.8665 Z8         2 LUT     -0.191631
    147 C9         69.5675   61.3570   44.5208 Z9         2 LUT      0.196698
    148 C10        70.6552   62.0016   44.0136 Y1         2 LUT     -0.208611
    149 C11        71.4142   61.8466   42.7982 Y2         2 LUT      0.030784
    150 C12        72.3859   62.8181   42.5034 Y3         2 LUT     -0.220316
    151 C13        73.3491   62.7047   41.4825 Y4         2 LUT      0.215937
    152 C14        74.4169   63.5865   41.4169 Y5         2 LUT     -0.185793
    153 C15        75.5429   63.4302   40.6047 Y6         2 LUT     -0.057835
    154 C16        68.3314   59.5705   48.2618 Y7         2 LUT     -0.405615
    155 C17        69.0396   61.3503   49.9818 Y7         2 LUT     -0.405615
    156 C18        66.1269   63.9106   47.3880 Y9         2 LUT     -0.369639
    157 C19        68.9592   60.1140   43.9183 W1         2 LUT     -0.333362
    158 C20        73.0382   61.8135   40.2082 W2         2 LUT     -0.323439
    159 C21        87.1863   64.2157   34.4950 Z1         2 LUT      0.406104
    160 C22        87.8551   63.5208   33.3511 Z2         2 LUT     -0.404965
    161 C23        88.0399   64.3607   32.1227 Z3         2 LUT      0.391255
    162 O23        88.2477   63.5147   30.9793 S1         2 LUT     -0.528210
    163 C24        86.7412   65.0526   31.7745 W6         2 LUT     -0.258361
    164 C25        85.7281   65.2474   32.6057 Z5         2 LUT      0.133546
    165 C26        85.7619   64.6321   33.9762 W8         2 LUT     -0.147008
    166 C27        84.9546   65.2500   35.1230 Z7         2 LUT      0.023843
    167 C28        83.9187   64.5963   35.8220 Z8         2 LUT     -0.216987
    168 C29        83.2133   65.2890   36.9912 Z9         2 LUT      0.206524
    169 C30        81.9615   64.8016   37.3176 Y1         2 LUT     -0.215556
    170 C31        81.1486   65.2332   38.4467 Y2         2 LUT      0.025142
    171 C32        79.9337   64.5983   38.7261 Y3         2 LUT     -0.212209
    172 C33        78.9777   64.9323   39.7814 Y4         2 LUT      0.240937
    173 C34        77.8630   64.1368   39.7187 Y5         2 LUT     -0.218862
    174 C35        76.6946   64.1520   40.5818 Y6         2 LUT     -0.023547
    175 C36        88.0672   65.4223   34.9341 Y7         2 LUT     -0.393485
    176 C37        86.9574   63.1967   35.5516 Y7         2 LUT     -0.393485
    177 C38        84.4460   65.9796   32.1320 Y9         2 LUT     -0.387526
    178 C39        84.0346   66.4242   37.7254 W1         2 LUT     -0.322618
    179 C40        79.2700   65.9368   40.8000 W2         2 LUT     -0.358472
    180 H403       80.2372   65.9593   41.2340 R7         2 LUT      0.097720
    181 H402       79.1765   66.9978   40.3554 R7         2 LUT      0.097720
    182 H401       78.6584   65.8322   41.6782 R7         2 LUT      0.097720
    183 H393       84.3592   67.1871   37.0585 R4         2 LUT      0.082505
    184 H392       83.4992   66.8450   38.5253 R4         2 LUT      0.082505
    185 H391       84.9648   65.9955   38.1665 R4         2 LUT      0.082505
    186 H383       84.6881   66.4686   31.2155 R1         2 LUT      0.104030
    187 H382       83.6515   65.2546   32.0021 R1         2 LUT      0.104030
    188 H381       84.0069   66.6680   32.8450 R1         2 LUT      0.104030
    189 H373       86.2870   62.3876   35.3315 T4         2 LUT      0.089537
    190 H372       87.9013   62.8155   35.9249 T4         2 LUT      0.089537
    191 H371       86.5440   63.5976   36.4267 T4         2 LUT      0.089537
    192 H363       89.1293   65.1219   35.0317 T4         2 LUT      0.089537
    193 H362       88.0738   66.2470   34.2226 T4         2 LUT      0.089537
    194 H361       87.7586   65.7455   35.9140 T4         2 LUT      0.089537
    195 H222       88.8676   63.2734   33.6131 U2         2 LUT      0.127376
    196 H221       87.3824   62.5897   33.0965 U2         2 LUT      0.127376
    197 H203       73.7075   61.9249   39.3163 R7         2 LUT      0.087068
    198 H202       73.1712   60.7845   40.4044 R7         2 LUT      0.087068
    199 H201       72.0568   61.9150   39.8196 R7         2 LUT      0.087068
    200 H193       69.3933   60.0071   42.8871 R4         2 LUT      0.089716
    201 H192       69.2824   59.2303   44.5097 R4         2 LUT      0.089716
    202 H191       67.8506   60.0061   43.8051 R4         2 LUT      0.089716
    203 H183       65.2807   63.3510   47.1038 R1         2 LUT      0.094572
    204 H182       65.7270   64.7956   47.9356 R1         2 LUT      0.094572
    205 H181       66.6625   64.2268   46.4658 R1         2 LUT      0.094572
    206 H173       69.4885   60.4752   50.4409 T4         2 LUT      0.093752
    207 H172       69.8037   61.8112   49.3218 T4         2 LUT      0.093752
    208 H171       68.7603   62.0506   50.7594 T4         2 LUT      0.093752
    209 H163       68.7052   58.8722   49.0737 T4         2 LUT      0.093752
    210 H162       67.5877   59.1279   47.6423 T4         2 LUT      0.093752
    211 H161       69.1903   59.7055   47.5767 T4         2 LUT      0.093752
    212 HO3        65.2448   61.2990   52.1125 Q1         2 LUT      0.300121
    213 H8         69.8685   62.2300   46.4884 U7         2 LUT      0.080784
    214 H7         67.2269   61.0426   45.8592 U6         2 LUT      0.042190
    215 H42        65.6662   63.8326   49.8005 U5         2 LUT      0.145166
    216 H41        67.3328   63.5226   50.3072 U5         2 LUT      0.145166
    217 H35        76.6004   64.9312   41.3393 T3         2 LUT      0.077919
    218 H34        77.7718   63.3208   38.8835 T2         2 LUT      0.073626
    219 H32        79.6161   63.9789   37.9308 T1         2 LUT      0.092510
    220 H31        81.5001   65.9933   39.0569 U9         2 LUT      0.070048
    221 H30        81.5131   64.0139   36.7440 U8         2 LUT      0.085442
    222 H3         64.9078   61.7717   49.9022 U3         2 LUT     -0.031596
    223 H28        83.3443   63.8799   35.3076 U7         2 LUT      0.084728
    224 H27        85.3955   66.2183   35.3807 U6         2 LUT      0.087291
    225 H26        85.2671   63.6858   33.6173 Q6         2 LUT      0.075325
    226 H24        86.6462   65.4107   30.7156 Q5         2 LUT      0.094482
    227 H23        88.7842   65.1764   32.1868 U3         2 LUT     -0.024869
    228 H22        65.9086   60.1568   48.9632 U2         2 LUT      0.127376
    229 H21        66.7282   59.7752   50.4738 U2         2 LUT      0.127376
    230 H15        75.5894   62.4904   39.9939 T3         2 LUT      0.093200
    231 H14        74.5452   64.4253   42.0869 T2         2 LUT      0.068865
    232 H12        72.5078   63.5943   43.2548 T1         2 LUT      0.095507
    233 H11        71.2261   61.0169   42.1531 U9         2 LUT      0.068930
    234 H10        70.9727   62.8587   44.5891 U8         2 LUT      0.083911
    235 H1         89.1138   63.6992   30.6455 Q1         2 LUT      0.297311
@<TRIPOS>BOND
    1     6     1 1
    2     7     2 1
    3     8     3 1
    4     9     4 1
    5    11     4 1
    6    12     6 1
    7    13     9 1
    8    16     9 1
    9    25     5 1
   10    25    16 1
   11    26    10 1
   12    26    17 1
   13    27    18 1
   14    28    14 1
   15    28    19 1
   16    29    12 1
   17    30    13 1
   18    31    24 1
   19    32     1 1
   20    32    25 1
   21    33    21 1
   22    33    26 1
   23    34    22 1
   24    34    27 1
   25    35    23 1
   26    35    28 1
   27    36    12 1
   28    36    24 1
   29    37    13 1
   30    37    15 1
   31    38    31 1
   32    39    20 1
   33    39    32 1
   34    40     2 1
   35    40    33 1
   36    41     3 1
   37    41    34 1
   38    42     4 1
   39    42    35 1
   40    43    38 1
   41    44     5 1
   42    44    17 1
   43    44    39 1
   44    45    10 1
   45    45    18 1
   46    45    40 1
   47    46    19 1
   48    46    41 1
   49    47    14 1
   50    47    16 1
   51    47    42 1
   52    48    38 1
   53    49    48 1
   54    50    49 1
   55    51    50 1
   56    52    51 1
   57    53    51 1
   58    54    53 1
   59    55    54 1
   60    56    55 1
   61    57    56 1
   62    58    56 1
   63    59    58 1
   64    60    59 1
   65    61    60 1
   66    62    61 1
   67    63    61 1
   68    64    27 1
   69    64    46 1
   70    65     5 1
   71    65    10 1
   72    65    64 1
   73    65    14 1
   74    66    23 1
   75    67    23 1
   76    68    23 1
   77    69    22 1
   78    70    22 1
   79    71    22 1
   80    72    21 1
   81    73    21 1
   82    74    21 1
   83    75    20 1
   84    76    20 1
   85    77    20 1
   86    78    15 1
   87    79    15 1
   88    80    15 1
   89    81     8 1
   90    82     8 1
   91    83     8 1
   92    84     7 1
   93    85     7 1
   94    86     6 1
   95    87     6 1
   96    88     3 1
   97    89     3 1
   98    90     1 1
   99    91     1 1
  100    92    63 1
  101    93    63 1
  102    94    63 1
  103    95    62 1
  104    96    62 1
  105    97    62 1
  106    98    60 1
  107    99    60 1
  108   100    59 1
  109   101    59 1
  110   102    58 1
  111   103    58 1
  112   104    57 1
  113   105    57 1
  114   106    57 1
  115   107    55 1
  116   108    55 1
  117   109    54 1
  118   110    54 1
  119   111    53 1
  120   112    53 1
  121   113    19 1
  122   114    18 1
  123   115    17 1
  124   116     9 1
  125   117     2 1
  126   118    52 1
  127   119    52 1
  128   120    52 1
  129   121    51 1
  130   122    50 1
  131   123    50 1
  132   124    49 1
  133   125    49 1
  134   126    48 1
  135   127    48 1
  136   128    43 1
  137   129    43 1
  138   130    43 1
  139   131    39 1
  140   132    32 1
  141   133    31 1
  142   134    61 1
  143   135    56 1
  144   136    24 1
  145   137    24 1
  146   139   138 1
  147   140   139 1
  148   141   140 1
  149   142   140 1
  150   143   142 1
  151   144   138 1
  152   144   143 1
  153   145   144 1
  154   146   145 1
  155   147   146 1
  156   148   147 1
  157   149   148 1
  158   150   149 1
  159   151   150 1
  160   152   151 1
  161   153   152 1
  162   154   138 1
  163   155   138 1
  164   156   143 1
  165   157   147 1
  166   158   151 1
  167   160   159 1
  168   161   160 1
  169   162   161 1
  170   163   161 1
  171   164   163 1
  172   165   159 1
  173   165   164 1
  174   166   165 1
  175   167   166 1
  176   168   167 1
  177   169   168 1
  178   170   169 1
  179   171   170 1
  180   172   171 1
  181   173   172 1
  182   174   153 1
  183   174   173 1
  184   175   159 1
  185   176   159 1
  186   177   164 1
  187   178   168 1
  188   179   172 1
  189   180   179 1
  190   181   179 1
  191   182   179 1
  192   183   178 1
  193   184   178 1
  194   185   178 1
  195   186   177 1
  196   187   177 1
  197   188   177 1
  198   189   176 1
  199   190   176 1
  200   191   176 1
  201   192   175 1
  202   193   175 1
  203   194   175 1
  204   195   160 1
  205   196   160 1
  206   197   158 1
  207   198   158 1
  208   199   158 1
  209   200   157 1
  210   201   157 1
  211   202   157 1
  212   203   156 1
  213   204   156 1
  214   205   156 1
  215   206   155 1
  216   207   155 1
  217   208   155 1
  218   209   154 1
  219   210   154 1
  220   211   154 1
  221   212   141 1
  222   213   146 1
  223   214   145 1
  224   215   142 1
  225   216   142 1
  226   217   174 1
  227   218   173 1
  228   219   171 1
  229   220   170 1
  230   221   169 1
  231   222   140 1
  232   223   167 1
  233   224   166 1
  234   225   165 1
  235   226   163 1
  236   227   161 1
  237   228   139 1
  238   229   139 1
  239   230   153 1
  240   231   152 1
  241   232   150 1
  242   233   149 1
  243   234   148 1
  244   235   162 1
  245   65    153 1
  246   65    174 1
@<TRIPOS>SUBSTRUCTURE
      1 CLA               1 ****               0 ****  **** 
      2 LUT             138 ****               0 ****  **** 
