@<TRIPOS>MOLECULE
Cpptraj generated mol2 file.
  235   246     2     0     0
SMALL
USER_CHARGES


@<TRIPOS>ATOM
      1 CAA        76.8994   57.7808   33.3620 a2         1 CLA     -0.055900
      2 CAB        77.3842   61.4292   42.4172 c8         1 CLA     -0.148500
      3 CAC        70.3018   57.5323   42.4836 a2         1 CLA     -0.012600
      4 CAD        72.6190   55.1674   34.7651 ck         1 CLA      0.398800
      5 NA         76.0651   57.9573   36.9275 ns         1 CLA     -0.225500
      6 CBA        77.9697   57.5408   32.2529 a2         1 CLA     -0.135000
      7 CBB        78.6133   61.2585   42.8838 c0         1 CLA     -0.395200
      8 CBC        69.8204   56.0500   42.2970 a3         1 CLA     -0.037700
      9 CBD        74.0688   55.7162   34.3753 a1         1 CLA     -0.053900
     10 NB         76.0282   59.5489   39.4584 nm         1 CLA     -0.295700
     11 OBD        71.9174   54.4363   34.0547 o2         1 CLA     -0.494600
     12 CGA        78.3808   56.0756   31.9253 c4         1 CLA      0.827000
     13 CGD        75.0162   54.5817   33.9695 c4         1 CLA      0.655300
     14 ND         73.3174   57.0702   37.7297 nm         1 CLA     -0.291600
     15 CED        75.8364   52.3636   34.4510 a3         1 CLA      0.005400
     16 CHA        74.5263   56.5257   35.5948 cs         1 CLA     -0.123800
     17 CHB        77.7989   59.4290   37.7301 aa         1 CLA     -0.291900
     18 CHC        74.8645   59.6872   41.6865 aa         1 CLA     -0.090400
     19 CHD        71.5537   56.9992   39.4194 aa         1 CLA     -0.052000
     20 CMA        79.3708   57.2506   35.9969 a3         1 CLA     -0.230700
     21 CMB        79.0991   61.5523   39.6152 a3         1 CLA     -0.180800
     22 CMC        72.8024   59.1394   43.9904 a3         1 CLA     -0.134000
     23 CMD        69.9161   55.3092   37.1924 a3         1 CLA     -0.141100
     24 C1         79.2368   54.1184   32.9806 a2         1 CLA      0.023000
     25 C1A        75.7642   57.2573   35.7649 ac         1 CLA     -0.015100
     26 C1B        77.2682   59.9123   38.9542 cr         1 CLA      0.054700
     27 C1C        73.7542   58.9537   41.5490 cn         1 CLA     -0.005600
     28 C1D        72.0355   56.6012   38.1477 ap         1 CLA     -0.047300
     29 O1A        78.1623   55.4637   30.9300 o2         1 CLA     -0.610800
     30 O1D        75.9662   54.7741   33.1971 o2         1 CLA     -0.558200
     31 C2         79.9456   53.7770   34.2867 c8         1 CLA     -0.325100
     32 C2A        77.0786   57.2379   34.8305 a1         1 CLA      0.098600
     33 C2B        77.8554   60.7677   39.9560 cb         1 CLA      0.088500
     34 C2C        72.7090   58.7088   42.5416 cb         1 CLA      0.053700
     35 C2D        71.4041   55.8566   37.1479 cb         1 CLA      0.058900
     36 O2A        79.2219   55.5491   32.8687 o1         1 CLA     -0.437200
     37 O2D        74.9566   53.4934   34.7447 o1         1 CLA     -0.357600
     38 C3         80.7782   52.7293   34.5599 c5         1 CLA      0.031200
     39 C3A        78.1070   58.0382   35.5924 a1         1 CLA      0.166800
     40 C3B        77.1258   60.7411   41.1088 cb         1 CLA      0.035000
     41 C3C        71.7148   57.8648   41.8706 cb         1 CLA     -0.089900
     42 C3D        72.3872   55.7502   36.1096 cb         1 CLA     -0.035900
     43 C4         80.1064   51.3666   34.8366 a3         1 CLA     -0.053300
     44 C4A        77.2691   58.5031   36.8045 ac         1 CLA      0.001800
     45 C4B        75.8987   60.0281   40.7741 cn         1 CLA     -0.020900
     46 C4C        72.2175   57.6635   40.5032 cr         1 CLA     -0.044400
     47 C4D        73.5072   56.5256   36.5308 c6         1 CLA     -0.046000
     48 C5         82.2848   52.8938   34.2600 a2         1 CLA     -0.070400
     49 C6         83.1360   54.0908   34.6797 a2         1 CLA      0.043900
     50 C7         82.9816   54.3557   36.1758 a2         1 CLA     -0.150000
     51 C8         83.9002   55.4883   36.6913 a1         1 CLA      0.064200
     52 C9         85.4166   55.2515   36.2602 a3         1 CLA     -0.259300
     53 C10        83.8980   55.7416   38.2432 a2         1 CLA     -0.071900
     54 C11        82.4937   55.9911   38.9502 a2         1 CLA      0.014500
     55 C12        82.6400   56.3304   40.4253 a2         1 CLA     -0.112100
     56 C13        81.3451   56.4666   41.2880 a1         1 CLA      0.089200
     57 C14        80.5108   57.7181   40.8828 a3         1 CLA     -0.239100
     58 C15        81.5739   56.3105   42.8009 a2         1 CLA     -0.102200
     59 C16        82.2256   57.4575   43.6299 a2         1 CLA      0.023900
     60 C17        83.5371   58.1895   43.1482 a2         1 CLA     -0.105700
     61 C18        84.3483   59.0429   44.2240 a1         1 CLA      0.206800
     62 C19        83.6087   60.2519   44.8833 a3         1 CLA     -0.280100
     63 C20        84.8916   58.1550   45.3731 a3         1 CLA     -0.280100
     64 NC         73.4106   58.3672   40.3726 nx         1 CLA     -0.309200
     65 MG         74.6642   58.3285   38.5227 mg         1 CLA      0.895000
     66 HMD3       69.8946   54.4375   36.5341 dc         1 CLA      0.064300
     67 HMD2       69.6437   54.9403   38.1850 dc         1 CLA      0.064300
     68 HMD1       69.2497   56.0471   36.7619 dc         1 CLA      0.064300
     69 HMC3       71.8392   59.3946   44.4505 dc         1 CLA      0.052100
     70 HMC2       73.2144   58.3597   44.5227 dc         1 CLA      0.052100
     71 HMC1       73.3819   60.0684   44.0724 dc         1 CLA      0.052100
     72 HMB3       79.8637   60.8708   39.4694 dc         1 CLA      0.063600
     73 HMB2       79.0768   62.2319   38.7120 dc         1 CLA      0.063600
     74 HMB1       79.2730   62.1888   40.4965 dc         1 CLA      0.063600
     75 HMA3       79.1556   56.4477   36.6993 dc         1 CLA      0.058300
     76 HMA2       80.0378   56.8511   35.2087 dc         1 CLA      0.058300
     77 HMA1       80.0016   57.9752   36.4341 dc         1 CLA      0.058300
     78 HED3       76.8741   52.5971   34.6291 dc         1 CLA      0.079300
     79 HED2       75.5945   51.5568   35.0390 dc         1 CLA      0.079300
     80 HED1       75.7054   52.2027   33.3696 dc         1 CLA      0.079300
     81 HBC3       70.2145   55.5489   43.1679 dc         1 CLA      0.016300
     82 HBC2       68.7859   55.9416   42.1379 dc         1 CLA      0.016300
     83 HBC1       70.2927   55.6381   41.4017 dc         1 CLA      0.016300
     84 HBB2       78.9000   61.6238   43.9483 da         1 CLA      0.183000
     85 HBB1       79.4611   60.9550   42.2456 da         1 CLA      0.183000
     86 HBA2       77.5325   57.9730   31.3609 dc         1 CLA      0.029400
     87 HBA1       78.9420   58.0532   32.5170 dc         1 CLA      0.029400
     88 HAC2       70.3394   57.8046   43.5508 dc         1 CLA      0.029300
     89 HAC1       69.5802   58.1475   41.9676 dc         1 CLA      0.029300
     90 HAA2       75.9394   57.4717   32.9553 dc         1 CLA      0.028700
     91 HAA1       76.8159   58.8606   33.3950 dc         1 CLA      0.028700
     92 H203       85.4878   58.7151   46.0678 dc         1 CLA      0.065600
     93 H202       83.9992   57.8159   45.9463 dc         1 CLA      0.065600
     94 H201       85.5618   57.4203   45.0331 dc         1 CLA      0.065600
     95 H193       82.9273   59.9630   45.6761 dc         1 CLA      0.065600
     96 H192       84.2778   60.9133   45.4330 dc         1 CLA      0.065600
     97 H191       83.1129   60.8588   44.1780 dc         1 CLA      0.065600
     98 H172       84.1307   57.4095   42.6649 dc         1 CLA      0.027600
     99 H171       83.2384   58.9103   42.3384 dc         1 CLA      0.027600
    100 H162       81.5119   58.2560   43.7748 dc         1 CLA      0.002900
    101 H161       82.4689   57.1000   44.6181 dc         1 CLA      0.002900
    102 H152       80.6653   56.0982   43.2772 dc         1 CLA      0.029100
    103 H151       82.1260   55.3744   42.9846 dc         1 CLA      0.029100
    104 H143       80.5070   57.9029   39.8354 dc         1 CLA      0.063600
    105 H142       79.4573   57.5381   41.2013 dc         1 CLA      0.063600
    106 H141       80.8012   58.5619   41.3827 dc         1 CLA      0.063600
    107 H122       83.1886   55.4471   40.7774 dc         1 CLA      0.032500
    108 H121       83.1001   57.3383   40.3082 dc         1 CLA      0.032500
    109 H112       81.9122   56.6829   38.3304 dc         1 CLA      0.006600
    110 H111       81.9664   55.0555   38.9511 dc         1 CLA      0.006600
    111 H102       84.3833   54.8959   38.7468 dc         1 CLA      0.024100
    112 H101       84.6085   56.5991   38.4087 dc         1 CLA      0.024100
    113 HHD        70.5269   56.7056   39.6155 da         1 CLA      0.174300
    114 HHC        74.9526   60.3135   42.5683 da         1 CLA      0.136800
    115 HHB        78.8746   59.6474   37.5864 da         1 CLA      0.138300
    116 HBD        74.0891   56.1948   33.4358 dc         1 CLA      0.107700
    117 HAB        76.5735   61.7714   43.0412 da         1 CLA      0.155200
    118 H93        85.7713   54.2780   36.5361 dc         1 CLA      0.069500
    119 H92        85.7066   55.5010   35.2171 dc         1 CLA      0.069500
    120 H91        86.0192   55.9326   36.7702 dc         1 CLA      0.069500
    121 H8         83.5053   56.3760   36.2301 dc         1 CLA      0.029300
    122 H72        82.0586   54.8025   36.2544 dc         1 CLA      0.044400
    123 H71        83.1198   53.3740   36.7542 dc         1 CLA      0.044400
    124 H62        84.2026   53.8223   34.4860 dc         1 CLA      0.015600
    125 H61        82.9868   54.9698   34.1103 dc         1 CLA      0.015600
    126 H52        82.7135   52.0079   34.7941 dc         1 CLA      0.033200
    127 H51        82.4303   52.6826   33.2205 dc         1 CLA      0.033200
    128 H43        80.0269   51.2962   35.9059 dc         1 CLA      0.037000
    129 H42        79.1583   51.2524   34.2631 dc         1 CLA      0.037000
    130 H41        80.7495   50.5530   34.7028 dc         1 CLA      0.037000
    131 H3A        78.4409   58.9235   35.0215 dc         1 CLA      0.041100
    132 H2A        77.3838   56.1359   34.8599 dc         1 CLA      0.083100
    133 H2         79.8067   54.4299   35.1722 da         1 CLA      0.180900
    134 H18        85.2093   59.5013   43.6629 dc         1 CLA     -0.003900
    135 H13        80.6784   55.6633   41.0113 dc         1 CLA      0.019700
    136 H12        78.2766   53.6635   32.9361 dc         1 CLA      0.120400
    137 H11        79.7908   53.6287   32.1784 dc         1 CLA      0.120400
    138 C1         66.6055   61.2646   49.3890 Z1         2 LUT      0.509236
    139 C2         66.8071   62.6039   50.1291 Z2         2 LUT     -0.434695
    140 C3         65.5834   63.5358   50.1365 Z3         2 LUT      0.437453
    141 O3         65.9504   64.7888   50.7114 S1         2 LUT     -0.547129
    142 C4         64.9282   63.6922   48.7665 Z4         2 LUT     -0.468603
    143 C5         65.5088   62.8628   47.6646 Z5         2 LUT      0.279246
    144 C6         66.2254   61.7197   47.9563 Z6         2 LUT     -0.305473
    145 C7         67.0833   61.1345   46.8868 Z7         2 LUT      0.069402
    146 C8         68.2593   61.4675   46.2992 Z8         2 LUT     -0.191631
    147 C9         68.8061   60.8932   45.0579 Z9         2 LUT      0.196698
    148 C10        69.7289   61.6548   44.3620 Y1         2 LUT     -0.208611
    149 C11        70.3563   61.4905   43.0550 Y2         2 LUT      0.030784
    150 C12        71.3527   62.3610   42.6725 Y3         2 LUT     -0.220316
    151 C13        72.1669   62.3653   41.4747 Y4         2 LUT      0.215937
    152 C14        73.2403   63.2042   41.4791 Y5         2 LUT     -0.185793
    153 C15        74.2457   63.3249   40.5551 Y6         2 LUT     -0.057835
    154 C16        65.4017   60.5174   50.1207 Y7         2 LUT     -0.405615
    155 C17        67.9291   60.4586   49.5177 Y7         2 LUT     -0.405615
    156 C18        65.4342   63.7255   46.3449 Y9         2 LUT     -0.369639
    157 C19        68.3737   59.5114   44.5666 W1         2 LUT     -0.333362
    158 C20        71.7496   61.6051   40.2133 W2         2 LUT     -0.323439
    159 C21        85.7452   64.8436   34.6482 Z1         2 LUT      0.406104
    160 C22        86.5002   64.0592   33.4910 Z2         2 LUT     -0.404965
    161 C23        86.6879   64.8239   32.2604 Z3         2 LUT      0.391255
    162 O23        87.2476   63.9541   31.3152 S1         2 LUT     -0.528210
    163 C24        85.4339   65.5924   31.8665 W6         2 LUT     -0.258361
    164 C25        84.3656   65.8255   32.6091 Z5         2 LUT      0.133546
    165 C26        84.3034   65.1916   34.0066 W8         2 LUT     -0.147008
    166 C27        83.4379   65.8688   35.0182 Z7         2 LUT      0.023843
    167 C28        82.2789   65.3753   35.5166 Z8         2 LUT     -0.216987
    168 C29        81.7092   65.8356   36.7821 Z9         2 LUT      0.206524
    169 C30        80.5085   65.3131   37.2253 Y1         2 LUT     -0.215556
    170 C31        79.6900   65.4124   38.3735 Y2         2 LUT      0.025142
    171 C32        78.5659   64.7470   38.6987 Y3         2 LUT     -0.212209
    172 C33        77.6719   64.8309   39.8086 Y4         2 LUT      0.240937
    173 C34        76.4646   64.1920   39.8112 Y5         2 LUT     -0.218862
    174 C35        75.3425   64.1171   40.7180 Y6         2 LUT     -0.023547
    175 C36        86.6542   66.0472   34.9925 Y7         2 LUT     -0.393485
    176 C37        85.6500   63.8115   35.8276 Y7         2 LUT     -0.393485
    177 C38        83.1241   66.5273   32.0567 Y9         2 LUT     -0.387526
    178 C39        82.4388   66.7127   37.8375 W1         2 LUT     -0.322618
    179 C40        78.4142   65.2483   41.0620 W2         2 LUT     -0.358472
    180 H403       79.2129   64.5840   41.2553 R7         2 LUT      0.097720
    181 H402       78.7891   66.2762   41.0498 R7         2 LUT      0.097720
    182 H401       77.8309   65.1532   42.0173 R7         2 LUT      0.097720
    183 H393       83.4953   66.9338   37.6424 R4         2 LUT      0.082505
    184 H392       81.9954   67.7189   37.9124 R4         2 LUT      0.082505
    185 H391       82.3933   66.2875   38.8660 R4         2 LUT      0.082505
    186 H383       82.3085   65.8389   31.9655 R1         2 LUT      0.104030
    187 H382       82.8933   67.3852   32.6207 R1         2 LUT      0.104030
    188 H381       83.3701   67.0414   31.0983 R1         2 LUT      0.104030
    189 H373       85.3543   62.8035   35.5650 T4         2 LUT      0.089537
    190 H372       86.6451   63.7519   36.3023 T4         2 LUT      0.089537
    191 H371       85.0124   64.1866   36.6123 T4         2 LUT      0.089537
    192 H363       86.6636   66.7085   34.1050 T4         2 LUT      0.089537
    193 H362       86.4098   66.6418   35.8791 T4         2 LUT      0.089537
    194 H361       87.6662   65.7869   35.0893 T4         2 LUT      0.089537
    195 H222       87.4954   63.7677   33.8362 U2         2 LUT      0.127376
    196 H221       86.0226   63.0615   33.2368 U2         2 LUT      0.127376
    197 H203       70.9895   62.1735   39.6739 R7         2 LUT      0.087068
    198 H202       72.4567   61.1918   39.5721 R7         2 LUT      0.087068
    199 H201       71.1598   60.7025   40.5356 R7         2 LUT      0.087068
    200 H193       68.5510   59.3273   43.5071 R4         2 LUT      0.089716
    201 H192       69.0519   58.7305   45.0971 R4         2 LUT      0.089716
    202 H191       67.3765   59.2890   44.7722 R4         2 LUT      0.089716
    203 H183       66.0278   64.6372   46.5937 R1         2 LUT      0.094572
    204 H182       65.9738   63.2203   45.5979 R1         2 LUT      0.094572
    205 H181       64.3982   64.0372   46.0379 R1         2 LUT      0.094572
    206 H173       68.7664   61.0600   49.2213 T4         2 LUT      0.093752
    207 H172       68.1566   60.2002   50.5018 T4         2 LUT      0.093752
    208 H171       67.8793   59.4801   49.0421 T4         2 LUT      0.093752
    209 H163       65.7110   60.3067   51.1149 T4         2 LUT      0.093752
    210 H162       64.4335   60.9681   50.2851 T4         2 LUT      0.093752
    211 H161       65.2060   59.5339   49.5717 T4         2 LUT      0.093752
    212 HO3        65.1706   65.2767   51.1290 Q1         2 LUT      0.300121
    213 H8         68.7218   62.3800   46.7039 U7         2 LUT      0.080784
    214 H7         66.5076   60.3853   46.4257 U6         2 LUT      0.042190
    215 H42        63.8846   63.4165   48.9273 U5         2 LUT      0.145166
    216 H41        65.0152   64.7365   48.4975 U5         2 LUT      0.145166
    217 H35        75.2439   64.7004   41.5903 T3         2 LUT      0.077919
    218 H34        76.2270   63.5999   38.9559 T2         2 LUT      0.073626
    219 H32        78.2168   64.0704   37.9497 T1         2 LUT      0.092510
    220 H31        80.1028   66.2093   39.0069 U9         2 LUT      0.070048
    221 H30        80.0591   64.6034   36.5669 U8         2 LUT      0.085442
    222 H3         64.8841   63.0544   50.7755 U3         2 LUT     -0.031596
    223 H28        81.8364   64.5325   34.9661 U7         2 LUT      0.084728
    224 H27        83.8108   66.8000   35.3681 U6         2 LUT      0.087291
    225 H26        83.7220   64.2296   33.7712 Q6         2 LUT      0.075325
    226 H24        85.3097   65.9231   30.8434 Q5         2 LUT      0.094482
    227 H23        87.5459   65.4879   32.4749 U3         2 LUT     -0.024869
    228 H22        67.1160   62.5350   51.1726 U2         2 LUT      0.127376
    229 H21        67.5019   63.2792   49.6150 U2         2 LUT      0.127376
    230 H15        74.3579   62.6477   39.7600 T3         2 LUT      0.093200
    231 H14        73.4588   63.9049   42.3338 T2         2 LUT      0.068865
    232 H12        71.6403   63.0861   43.4116 T1         2 LUT      0.095507
    233 H11        70.1064   60.6374   42.4242 U9         2 LUT      0.068930
    234 H10        70.0856   62.5524   44.8114 U8         2 LUT      0.083911
    235 H1         87.3831   64.2899   30.4588 Q1         2 LUT      0.297311
@<TRIPOS>BOND
    1     6     1 1
    2     7     2 1
    3     8     3 1
    4     9     4 1
    5    11     4 1
    6    12     6 1
    7    13     9 1
    8    16     9 1
    9    25     5 1
   10    25    16 1
   11    26    10 1
   12    26    17 1
   13    27    18 1
   14    28    14 1
   15    28    19 1
   16    29    12 1
   17    30    13 1
   18    31    24 1
   19    32     1 1
   20    32    25 1
   21    33    21 1
   22    33    26 1
   23    34    22 1
   24    34    27 1
   25    35    23 1
   26    35    28 1
   27    36    12 1
   28    36    24 1
   29    37    13 1
   30    37    15 1
   31    38    31 1
   32    39    20 1
   33    39    32 1
   34    40     2 1
   35    40    33 1
   36    41     3 1
   37    41    34 1
   38    42     4 1
   39    42    35 1
   40    43    38 1
   41    44     5 1
   42    44    17 1
   43    44    39 1
   44    45    10 1
   45    45    18 1
   46    45    40 1
   47    46    19 1
   48    46    41 1
   49    47    14 1
   50    47    16 1
   51    47    42 1
   52    48    38 1
   53    49    48 1
   54    50    49 1
   55    51    50 1
   56    52    51 1
   57    53    51 1
   58    54    53 1
   59    55    54 1
   60    56    55 1
   61    57    56 1
   62    58    56 1
   63    59    58 1
   64    60    59 1
   65    61    60 1
   66    62    61 1
   67    63    61 1
   68    64    27 1
   69    64    46 1
   70    65     5 1
   71    65    10 1
   72    65    64 1
   73    65    14 1
   74    66    23 1
   75    67    23 1
   76    68    23 1
   77    69    22 1
   78    70    22 1
   79    71    22 1
   80    72    21 1
   81    73    21 1
   82    74    21 1
   83    75    20 1
   84    76    20 1
   85    77    20 1
   86    78    15 1
   87    79    15 1
   88    80    15 1
   89    81     8 1
   90    82     8 1
   91    83     8 1
   92    84     7 1
   93    85     7 1
   94    86     6 1
   95    87     6 1
   96    88     3 1
   97    89     3 1
   98    90     1 1
   99    91     1 1
  100    92    63 1
  101    93    63 1
  102    94    63 1
  103    95    62 1
  104    96    62 1
  105    97    62 1
  106    98    60 1
  107    99    60 1
  108   100    59 1
  109   101    59 1
  110   102    58 1
  111   103    58 1
  112   104    57 1
  113   105    57 1
  114   106    57 1
  115   107    55 1
  116   108    55 1
  117   109    54 1
  118   110    54 1
  119   111    53 1
  120   112    53 1
  121   113    19 1
  122   114    18 1
  123   115    17 1
  124   116     9 1
  125   117     2 1
  126   118    52 1
  127   119    52 1
  128   120    52 1
  129   121    51 1
  130   122    50 1
  131   123    50 1
  132   124    49 1
  133   125    49 1
  134   126    48 1
  135   127    48 1
  136   128    43 1
  137   129    43 1
  138   130    43 1
  139   131    39 1
  140   132    32 1
  141   133    31 1
  142   134    61 1
  143   135    56 1
  144   136    24 1
  145   137    24 1
  146   139   138 1
  147   140   139 1
  148   141   140 1
  149   142   140 1
  150   143   142 1
  151   144   138 1
  152   144   143 1
  153   145   144 1
  154   146   145 1
  155   147   146 1
  156   148   147 1
  157   149   148 1
  158   150   149 1
  159   151   150 1
  160   152   151 1
  161   153   152 1
  162   154   138 1
  163   155   138 1
  164   156   143 1
  165   157   147 1
  166   158   151 1
  167   160   159 1
  168   161   160 1
  169   162   161 1
  170   163   161 1
  171   164   163 1
  172   165   159 1
  173   165   164 1
  174   166   165 1
  175   167   166 1
  176   168   167 1
  177   169   168 1
  178   170   169 1
  179   171   170 1
  180   172   171 1
  181   173   172 1
  182   174   153 1
  183   174   173 1
  184   175   159 1
  185   176   159 1
  186   177   164 1
  187   178   168 1
  188   179   172 1
  189   180   179 1
  190   181   179 1
  191   182   179 1
  192   183   178 1
  193   184   178 1
  194   185   178 1
  195   186   177 1
  196   187   177 1
  197   188   177 1
  198   189   176 1
  199   190   176 1
  200   191   176 1
  201   192   175 1
  202   193   175 1
  203   194   175 1
  204   195   160 1
  205   196   160 1
  206   197   158 1
  207   198   158 1
  208   199   158 1
  209   200   157 1
  210   201   157 1
  211   202   157 1
  212   203   156 1
  213   204   156 1
  214   205   156 1
  215   206   155 1
  216   207   155 1
  217   208   155 1
  218   209   154 1
  219   210   154 1
  220   211   154 1
  221   212   141 1
  222   213   146 1
  223   214   145 1
  224   215   142 1
  225   216   142 1
  226   217   174 1
  227   218   173 1
  228   219   171 1
  229   220   170 1
  230   221   169 1
  231   222   140 1
  232   223   167 1
  233   224   166 1
  234   225   165 1
  235   226   163 1
  236   227   161 1
  237   228   139 1
  238   229   139 1
  239   230   153 1
  240   231   152 1
  241   232   150 1
  242   233   149 1
  243   234   148 1
  244   235   162 1
  245   65    153 1
  246   65    174 1
@<TRIPOS>SUBSTRUCTURE
      1 CLA               1 ****               0 ****  **** 
      2 LUT             138 ****               0 ****  **** 
