@<TRIPOS>MOLECULE
Cpptraj generated mol2 file.
  235   246     2     0     0
SMALL
USER_CHARGES


@<TRIPOS>ATOM
      1 CAA        79.2321   59.4187   33.4706 a2         1 CLA     -0.055900
      2 CAB        79.0090   62.9450   42.6578 c8         1 CLA     -0.148500
      3 CAC        71.8876   59.0505   41.6969 a2         1 CLA     -0.012600
      4 CAD        74.8646   57.0310   34.3261 ck         1 CLA      0.398800
      5 NA         77.9234   59.7620   36.9477 ns         1 CLA     -0.225500
      6 CBA        80.5655   59.4299   32.7861 a2         1 CLA     -0.135000
      7 CBB        79.4898   64.1900   42.9461 c0         1 CLA     -0.395200
      8 CBC        72.0610   57.4524   41.8778 a3         1 CLA     -0.037700
      9 CBD        76.3128   57.5113   34.2103 a1         1 CLA     -0.053900
     10 NB         77.8081   61.1258   39.5819 nm         1 CLA     -0.295700
     11 OBD        74.2940   56.3681   33.4848 o2         1 CLA     -0.494600
     12 CGA        81.1170   58.0722   32.5595 c4         1 CLA      0.827000
     13 CGD        77.2503   56.4015   33.9191 c4         1 CLA      0.655300
     14 ND         75.1086   58.9242   37.3100 nm         1 CLA     -0.291600
     15 CED        78.1482   54.3589   34.5461 a3         1 CLA      0.005400
     16 CHA        76.7113   58.2011   35.4909 cs         1 CLA     -0.123800
     17 CHB        79.6553   61.1895   37.8870 aa         1 CLA     -0.291900
     18 CHC        76.5575   61.1903   41.5740 aa         1 CLA     -0.090400
     19 CHD        73.1748   58.7507   38.8295 aa         1 CLA     -0.052000
     20 CMA        81.4798   59.4013   36.2674 a3         1 CLA     -0.230700
     21 CMB        81.1753   62.8166   40.1522 a3         1 CLA     -0.180800
     22 CMC        74.1141   60.8264   43.5079 a3         1 CLA     -0.134000
     23 CMD        72.0673   57.0467   36.4471 a3         1 CLA     -0.141100
     24 C1         81.9399   56.0716   33.5028 a2         1 CLA      0.023000
     25 C1A        77.8384   58.9555   35.8423 ac         1 CLA     -0.015100
     26 C1B        79.0916   61.5247   39.1590 cr         1 CLA      0.054700
     27 C1C        75.2957   60.5928   41.1960 cn         1 CLA     -0.005600
     28 C1D        73.8662   58.4798   37.5966 ap         1 CLA     -0.047300
     29 O1A        80.7733   57.4246   31.5641 o2         1 CLA     -0.610800
     30 O1D        77.9537   56.2875   32.9207 o2         1 CLA     -0.558200
     31 C2         82.4364   55.7435   34.8962 c8         1 CLA     -0.325100
     32 C2A        79.1771   58.9026   34.9542 a1         1 CLA      0.098600
     33 C2B        79.7707   62.2961   40.2272 cb         1 CLA      0.088500
     34 C2C        74.1742   60.3821   42.0975 cb         1 CLA      0.053700
     35 C2D        73.3640   57.6879   36.4272 cb         1 CLA      0.058900
     36 O2A        81.8019   57.5417   33.6248 o1         1 CLA     -0.437200
     37 O2D        77.2009   55.4179   34.9239 o1         1 CLA     -0.357600
     38 C3         83.4613   54.8771   35.1451 c5         1 CLA      0.031200
     39 C3A        80.0941   59.8889   35.8041 a1         1 CLA      0.166800
     40 C3B        78.8622   62.2547   41.3583 cb         1 CLA      0.035000
     41 C3C        73.2029   59.6824   41.3035 cb         1 CLA     -0.089900
     42 C3D        74.4439   57.6623   35.5683 cb         1 CLA     -0.035900
     43 C4         83.3498   53.3256   35.2102 a3         1 CLA     -0.053300
     44 C4A        79.1623   60.3507   36.9318 ac         1 CLA      0.001800
     45 C4B        77.6863   61.5708   40.8726 cn         1 CLA     -0.020900
     46 C4C        73.7271   59.5071   39.9226 cr         1 CLA     -0.044400
     47 C4D        75.5385   58.2677   36.2048 c6         1 CLA     -0.046000
     48 C5         84.8578   55.4989   35.1045 a2         1 CLA     -0.070400
     49 C6         85.2502   56.6353   36.0794 a2         1 CLA      0.043900
     50 C7         85.3285   56.2189   37.5827 a2         1 CLA     -0.150000
     51 C8         85.5526   57.3559   38.5932 a1         1 CLA      0.064200
     52 C9         87.0199   57.9436   38.4740 a3         1 CLA     -0.259300
     53 C10        85.3406   56.9084   40.0406 a2         1 CLA     -0.071900
     54 C11        85.5055   58.0502   41.1221 a2         1 CLA      0.014500
     55 C12        84.9217   57.6821   42.4361 a2         1 CLA     -0.112100
     56 C13        84.9961   58.9128   43.4258 a1         1 CLA      0.089200
     57 C14        86.3267   58.7885   44.0881 a3         1 CLA     -0.239100
     58 C15        83.7963   58.9821   44.4475 a2         1 CLA     -0.102200
     59 C16        82.4136   59.0628   43.8401 a2         1 CLA      0.023900
     60 C17        81.3257   59.5092   44.9005 a2         1 CLA     -0.105700
     61 C18        79.8614   59.5508   44.2023 a1         1 CLA      0.206800
     62 C19        79.1820   58.1973   43.8939 a3         1 CLA     -0.280100
     63 C20        78.8654   60.4245   45.0510 a3         1 CLA     -0.280100
     64 NC         74.9944   60.1268   39.8758 nx         1 CLA     -0.309200
     65 MG         76.3671   60.0602   38.3636 mg         1 CLA      0.895000
     66 HMD3       72.0365   56.5106   35.5156 dc         1 CLA      0.064300
     67 HMD2       71.9386   56.3703   37.2693 dc         1 CLA      0.064300
     68 HMD1       71.3720   57.8337   36.3121 dc         1 CLA      0.064300
     69 HMC3       75.1083   60.4566   43.8874 dc         1 CLA      0.052100
     70 HMC2       73.9611   61.8825   43.6573 dc         1 CLA      0.052100
     71 HMC1       73.2098   60.3662   43.9096 dc         1 CLA      0.052100
     72 HMB3       81.0917   63.7413   39.5606 dc         1 CLA      0.063600
     73 HMB2       81.5517   62.9155   41.0985 dc         1 CLA      0.063600
     74 HMB1       81.9296   62.1319   39.6908 dc         1 CLA      0.063600
     75 HMA3       81.4594   58.5272   36.9065 dc         1 CLA      0.058300
     76 HMA2       82.1778   59.1346   35.4383 dc         1 CLA      0.058300
     77 HMA1       81.9076   60.1854   36.8405 dc         1 CLA      0.058300
     78 HED3       77.8898   53.4516   35.1666 dc         1 CLA      0.079300
     79 HED2       78.1671   54.0743   33.4954 dc         1 CLA      0.079300
     80 HED1       79.1594   54.7099   34.8144 dc         1 CLA      0.079300
     81 HBC3       72.7308   57.3169   42.7039 dc         1 CLA      0.016300
     82 HBC2       71.0859   57.1246   42.2186 dc         1 CLA      0.016300
     83 HBC1       72.5615   56.9497   40.9984 dc         1 CLA      0.016300
     84 HBB2       79.5057   64.4695   44.0476 da         1 CLA      0.183000
     85 HBB1       79.8792   64.8472   42.1693 da         1 CLA      0.183000
     86 HBA2       80.5527   59.9547   31.8574 dc         1 CLA      0.029400
     87 HBA1       81.3565   59.9739   33.3110 dc         1 CLA      0.029400
     88 HAC2       71.6613   59.3116   42.7413 dc         1 CLA      0.029300
     89 HAC1       71.1088   59.2267   40.9776 dc         1 CLA      0.029300
     90 HAA2       78.5561   58.8813   32.8682 dc         1 CLA      0.028700
     91 HAA1       78.9119   60.4323   33.4293 dc         1 CLA      0.028700
     92 H203       79.4616   61.3330   45.2181 dc         1 CLA      0.065600
     93 H202       77.8795   60.6083   44.5835 dc         1 CLA      0.065600
     94 H201       78.6457   59.9011   45.9338 dc         1 CLA      0.065600
     95 H193       79.7615   57.7545   43.0792 dc         1 CLA      0.065600
     96 H192       79.2182   57.6037   44.8400 dc         1 CLA      0.065600
     97 H191       78.1650   58.3446   43.5941 dc         1 CLA      0.065600
     98 H172       81.2600   58.7634   45.6930 dc         1 CLA      0.027600
     99 H171       81.5004   60.4967   45.2182 dc         1 CLA      0.027600
    100 H162       82.3494   59.7400   42.9862 dc         1 CLA      0.002900
    101 H161       82.1962   58.1069   43.5250 dc         1 CLA      0.002900
    102 H152       83.8519   58.1248   45.1394 dc         1 CLA      0.029100
    103 H151       83.9456   59.8670   45.1416 dc         1 CLA      0.029100
    104 H143       87.1118   59.3165   43.5894 dc         1 CLA      0.063600
    105 H142       86.2500   59.4338   45.0144 dc         1 CLA      0.063600
    106 H141       86.6469   57.8077   44.3160 dc         1 CLA      0.063600
    107 H122       83.8894   57.5532   42.2370 dc         1 CLA      0.032500
    108 H121       85.2227   56.7024   42.7435 dc         1 CLA      0.032500
    109 H112       86.4850   58.4622   41.2117 dc         1 CLA      0.006600
    110 H111       84.9237   58.9378   40.8288 dc         1 CLA      0.006600
    111 H102       84.3801   56.3471   40.1040 dc         1 CLA      0.024100
    112 H101       86.1374   56.1426   40.1531 dc         1 CLA      0.024100
    113 HHD        72.1561   58.3116   38.8522 da         1 CLA      0.174300
    114 HHC        76.4912   61.6150   42.5324 da         1 CLA      0.136800
    115 HHB        80.6459   61.6225   37.8106 da         1 CLA      0.138300
    116 HBD        76.2905   58.2636   33.3678 dc         1 CLA      0.107700
    117 HAB        78.4575   62.4334   43.5252 da         1 CLA      0.155200
    118 H93        87.2422   58.2581   37.4214 dc         1 CLA      0.069500
    119 H92        87.1696   58.8196   39.0647 dc         1 CLA      0.069500
    120 H91        87.7441   57.2013   38.7696 dc         1 CLA      0.069500
    121 H8         84.9266   58.1696   38.2119 dc         1 CLA      0.029300
    122 H72        84.3552   55.7822   37.7537 dc         1 CLA      0.044400
    123 H71        85.9919   55.3552   37.7172 dc         1 CLA      0.044400
    124 H62        86.2263   57.0697   35.8048 dc         1 CLA      0.015600
    125 H61        84.4396   57.3265   35.9258 dc         1 CLA      0.015600
    126 H52        85.5690   54.6406   35.0479 dc         1 CLA      0.033200
    127 H51        84.9926   56.0217   34.1750 dc         1 CLA      0.033200
    128 H43        83.6169   52.9065   36.2223 dc         1 CLA      0.037000
    129 H42        82.3366   52.9613   34.9276 dc         1 CLA      0.037000
    130 H41        83.9550   52.8831   34.4106 dc         1 CLA      0.037000
    131 H3A        80.3737   60.8035   35.2564 dc         1 CLA      0.041100
    132 H2A        79.4795   57.8458   34.8889 dc         1 CLA      0.083100
    133 H2         82.0667   56.3511   35.7431 da         1 CLA      0.180900
    134 H18        79.8924   59.9984   43.1733 dc         1 CLA     -0.003900
    135 H13        85.0708   59.8382   42.8198 dc         1 CLA      0.019700
    136 H12        80.9764   55.4900   33.3537 dc         1 CLA      0.120400
    137 H11        82.6650   55.7747   32.7296 dc         1 CLA      0.120400
    138 C1         68.2956   62.6723   48.8130 Z1         2 LUT      0.509236
    139 C2         66.8981   62.4766   49.5530 Z2         2 LUT     -0.434695
    140 C3         66.1446   63.7482   49.9906 Z3         2 LUT      0.437453
    141 O3         65.9897   63.7629   51.4516 S1         2 LUT     -0.547129
    142 C4         66.7535   65.0557   49.4856 Z4         2 LUT     -0.468603
    143 C5         67.4337   64.9574   48.1453 Z5         2 LUT      0.279246
    144 C6         68.2725   63.8945   47.8491 Z6         2 LUT     -0.305473
    145 C7         68.5864   63.5338   46.4640 Z7         2 LUT      0.069402
    146 C8         69.7934   63.5199   45.9326 Z8         2 LUT     -0.191631
    147 C9         70.3396   63.2398   44.6209 Z9         2 LUT      0.196698
    148 C10        71.4425   63.9069   44.1467 Y1         2 LUT     -0.208611
    149 C11        72.1207   63.8337   42.8581 Y2         2 LUT      0.030784
    150 C12        73.3400   64.3127   42.6046 Y3         2 LUT     -0.220316
    151 C13        74.2326   64.2225   41.4098 Y4         2 LUT      0.215937
    152 C14        75.4194   64.9101   41.5669 Y5         2 LUT     -0.185793
    153 C15        76.5002   64.8613   40.6253 Y6         2 LUT     -0.057835
    154 C16        68.6440   61.2661   48.2200 Y7         2 LUT     -0.405615
    155 C17        69.2324   63.0680   49.9305 Y7         2 LUT     -0.405615
    156 C18        66.6426   65.7407   47.0579 Y9         2 LUT     -0.369639
    157 C19        69.4871   62.2816   43.7897 W1         2 LUT     -0.333362
    158 C20        73.7203   63.5011   40.1780 W2         2 LUT     -0.323439
    159 C21        87.4945   66.6548   34.6651 Z1         2 LUT      0.406104
    160 C22        88.5259   66.1510   33.6305 Z2         2 LUT     -0.404965
    161 C23        88.7754   67.1361   32.4100 Z3         2 LUT      0.391255
    162 O23        89.5683   66.5169   31.4063 S1         2 LUT     -0.528210
    163 C24        87.5444   67.8642   31.9641 W6         2 LUT     -0.258361
    164 C25        86.3787   67.7639   32.5714 Z5         2 LUT      0.133546
    165 C26        86.1538   66.9728   33.9134 W8         2 LUT     -0.147008
    166 C27        85.1362   67.6655   34.7580 Z7         2 LUT      0.023843
    167 C28        84.1052   67.0613   35.4720 Z8         2 LUT     -0.216987
    168 C29        83.5231   67.4947   36.7394 Z9         2 LUT      0.206524
    169 C30        82.3795   66.9958   37.2304 Y1         2 LUT     -0.215556
    170 C31        81.6424   67.1989   38.4298 Y2         2 LUT      0.025142
    171 C32        80.6371   66.4273   38.7183 Y3         2 LUT     -0.212209
    172 C33        79.7323   66.4873   39.8251 Y4         2 LUT      0.240937
    173 C34        78.6452   65.7160   39.8441 Y5         2 LUT     -0.218862
    174 C35        77.5489   65.7011   40.7213 Y6         2 LUT     -0.023547
    175 C36        88.3419   67.7816   35.3631 Y7         2 LUT     -0.393485
    176 C37        87.5220   65.4613   35.6204 Y7         2 LUT     -0.393485
    177 C38        85.2298   68.4570   31.9109 Y9         2 LUT     -0.387526
    178 C39        84.3366   68.5153   37.5392 W1         2 LUT     -0.322618
    179 C40        80.0545   67.4209   40.9783 W2         2 LUT     -0.358472
    180 H403       79.7954   68.4961   40.7238 R7         2 LUT      0.097720
    181 H402       79.4682   67.3181   41.9041 R7         2 LUT      0.097720
    182 H401       81.0907   67.4970   41.3160 R7         2 LUT      0.097720
    183 H393       83.8338   68.7865   38.4564 R4         2 LUT      0.082505
    184 H392       85.3218   68.2298   37.8720 R4         2 LUT      0.082505
    185 H391       84.5807   69.3655   36.9324 R4         2 LUT      0.082505
    186 H383       84.2586   67.8982   32.0968 R1         2 LUT      0.104030
    187 H382       85.1178   69.3717   32.3797 R1         2 LUT      0.104030
    188 H381       85.2553   68.5717   30.8073 R1         2 LUT      0.104030
    189 H373       87.1005   64.5805   35.0658 T4         2 LUT      0.089537
    190 H372       88.3982   65.1420   36.1665 T4         2 LUT      0.089537
    191 H371       86.7763   65.6473   36.3759 T4         2 LUT      0.089537
    192 H363       88.2955   68.6615   34.7122 T4         2 LUT      0.089537
    193 H362       87.9764   67.8633   36.3426 T4         2 LUT      0.089537
    194 H361       89.3668   67.5726   35.4747 T4         2 LUT      0.089537
    195 H222       89.5598   66.0001   34.0571 U2         2 LUT      0.127376
    196 H221       88.2746   65.1362   33.3902 U2         2 LUT      0.127376
    197 H203       74.5700   63.1937   39.4981 R7         2 LUT      0.087068
    198 H202       73.2310   62.5890   40.4651 R7         2 LUT      0.087068
    199 H201       72.9501   64.1353   39.6088 R7         2 LUT      0.087068
    200 H193       70.0821   61.6329   43.1333 R4         2 LUT      0.089716
    201 H192       68.8883   61.6467   44.4741 R4         2 LUT      0.089716
    202 H191       68.7893   62.8322   43.1907 R4         2 LUT      0.089716
    203 H183       66.8839   66.7999   47.2209 R1         2 LUT      0.094572
    204 H182       66.8706   65.5184   46.0300 R1         2 LUT      0.094572
    205 H181       65.6092   65.4582   47.2067 R1         2 LUT      0.094572
    206 H173       69.2572   64.1119   50.2915 T4         2 LUT      0.093752
    207 H172       68.9086   62.5196   50.7853 T4         2 LUT      0.093752
    208 H171       70.2473   62.7186   49.6011 T4         2 LUT      0.093752
    209 H163       67.7822   60.8874   47.6864 T4         2 LUT      0.093752
    210 H162       69.4528   61.2732   47.5322 T4         2 LUT      0.093752
    211 H161       69.0352   60.5287   48.9157 T4         2 LUT      0.093752
    212 HO3        66.8416   63.8052   51.9980 Q1         2 LUT      0.300121
    213 H8         70.5088   63.8859   46.6631 U7         2 LUT      0.080784
    214 H7         67.7318   63.4479   45.8443 U6         2 LUT      0.042190
    215 H42        66.0053   65.8976   49.5605 U5         2 LUT      0.145166
    216 H41        67.4984   65.4071   50.2377 U5         2 LUT      0.145166
    217 H35        77.5443   66.4828   41.5019 T3         2 LUT      0.077919
    218 H34        78.5111   65.1891   38.8548 T2         2 LUT      0.073626
    219 H32        80.3920   65.5624   38.0665 T1         2 LUT      0.092510
    220 H31        81.8568   68.0590   39.0628 U9         2 LUT      0.070048
    221 H30        81.8897   66.2282   36.6156 U8         2 LUT      0.085442
    222 H3         65.1050   63.5812   49.6417 U3         2 LUT     -0.031596
    223 H28        83.7742   66.1841   34.9890 U7         2 LUT      0.084728
    224 H27        85.6562   68.5902   35.1373 U6         2 LUT      0.087291
    225 H26        85.8111   65.9372   33.7321 Q6         2 LUT      0.075325
    226 H24        87.7207   68.5561   31.0848 Q5         2 LUT      0.094482
    227 H23        89.3664   67.8850   32.8790 U3         2 LUT     -0.024869
    228 H22        66.2262   62.0990   48.8657 U2         2 LUT      0.127376
    229 H21        66.8443   61.8081   50.3976 U2         2 LUT      0.127376
    230 H15        76.4702   64.0566   39.9190 T3         2 LUT      0.093200
    231 H14        75.7628   65.4919   42.4802 T2         2 LUT      0.068865
    232 H12        73.6785   64.9301   43.5064 T1         2 LUT      0.095507
    233 H11        71.7861   63.2474   42.0587 U9         2 LUT      0.068930
    234 H10        71.8206   64.6340   44.8249 U8         2 LUT      0.083911
    235 H1         89.1958   65.7301   31.0591 Q1         2 LUT      0.297311
@<TRIPOS>BOND
    1     6     1 1
    2     7     2 1
    3     8     3 1
    4     9     4 1
    5    11     4 1
    6    12     6 1
    7    13     9 1
    8    16     9 1
    9    25     5 1
   10    25    16 1
   11    26    10 1
   12    26    17 1
   13    27    18 1
   14    28    14 1
   15    28    19 1
   16    29    12 1
   17    30    13 1
   18    31    24 1
   19    32     1 1
   20    32    25 1
   21    33    21 1
   22    33    26 1
   23    34    22 1
   24    34    27 1
   25    35    23 1
   26    35    28 1
   27    36    12 1
   28    36    24 1
   29    37    13 1
   30    37    15 1
   31    38    31 1
   32    39    20 1
   33    39    32 1
   34    40     2 1
   35    40    33 1
   36    41     3 1
   37    41    34 1
   38    42     4 1
   39    42    35 1
   40    43    38 1
   41    44     5 1
   42    44    17 1
   43    44    39 1
   44    45    10 1
   45    45    18 1
   46    45    40 1
   47    46    19 1
   48    46    41 1
   49    47    14 1
   50    47    16 1
   51    47    42 1
   52    48    38 1
   53    49    48 1
   54    50    49 1
   55    51    50 1
   56    52    51 1
   57    53    51 1
   58    54    53 1
   59    55    54 1
   60    56    55 1
   61    57    56 1
   62    58    56 1
   63    59    58 1
   64    60    59 1
   65    61    60 1
   66    62    61 1
   67    63    61 1
   68    64    27 1
   69    64    46 1
   70    65     5 1
   71    65    10 1
   72    65    64 1
   73    65    14 1
   74    66    23 1
   75    67    23 1
   76    68    23 1
   77    69    22 1
   78    70    22 1
   79    71    22 1
   80    72    21 1
   81    73    21 1
   82    74    21 1
   83    75    20 1
   84    76    20 1
   85    77    20 1
   86    78    15 1
   87    79    15 1
   88    80    15 1
   89    81     8 1
   90    82     8 1
   91    83     8 1
   92    84     7 1
   93    85     7 1
   94    86     6 1
   95    87     6 1
   96    88     3 1
   97    89     3 1
   98    90     1 1
   99    91     1 1
  100    92    63 1
  101    93    63 1
  102    94    63 1
  103    95    62 1
  104    96    62 1
  105    97    62 1
  106    98    60 1
  107    99    60 1
  108   100    59 1
  109   101    59 1
  110   102    58 1
  111   103    58 1
  112   104    57 1
  113   105    57 1
  114   106    57 1
  115   107    55 1
  116   108    55 1
  117   109    54 1
  118   110    54 1
  119   111    53 1
  120   112    53 1
  121   113    19 1
  122   114    18 1
  123   115    17 1
  124   116     9 1
  125   117     2 1
  126   118    52 1
  127   119    52 1
  128   120    52 1
  129   121    51 1
  130   122    50 1
  131   123    50 1
  132   124    49 1
  133   125    49 1
  134   126    48 1
  135   127    48 1
  136   128    43 1
  137   129    43 1
  138   130    43 1
  139   131    39 1
  140   132    32 1
  141   133    31 1
  142   134    61 1
  143   135    56 1
  144   136    24 1
  145   137    24 1
  146   139   138 1
  147   140   139 1
  148   141   140 1
  149   142   140 1
  150   143   142 1
  151   144   138 1
  152   144   143 1
  153   145   144 1
  154   146   145 1
  155   147   146 1
  156   148   147 1
  157   149   148 1
  158   150   149 1
  159   151   150 1
  160   152   151 1
  161   153   152 1
  162   154   138 1
  163   155   138 1
  164   156   143 1
  165   157   147 1
  166   158   151 1
  167   160   159 1
  168   161   160 1
  169   162   161 1
  170   163   161 1
  171   164   163 1
  172   165   159 1
  173   165   164 1
  174   166   165 1
  175   167   166 1
  176   168   167 1
  177   169   168 1
  178   170   169 1
  179   171   170 1
  180   172   171 1
  181   173   172 1
  182   174   153 1
  183   174   173 1
  184   175   159 1
  185   176   159 1
  186   177   164 1
  187   178   168 1
  188   179   172 1
  189   180   179 1
  190   181   179 1
  191   182   179 1
  192   183   178 1
  193   184   178 1
  194   185   178 1
  195   186   177 1
  196   187   177 1
  197   188   177 1
  198   189   176 1
  199   190   176 1
  200   191   176 1
  201   192   175 1
  202   193   175 1
  203   194   175 1
  204   195   160 1
  205   196   160 1
  206   197   158 1
  207   198   158 1
  208   199   158 1
  209   200   157 1
  210   201   157 1
  211   202   157 1
  212   203   156 1
  213   204   156 1
  214   205   156 1
  215   206   155 1
  216   207   155 1
  217   208   155 1
  218   209   154 1
  219   210   154 1
  220   211   154 1
  221   212   141 1
  222   213   146 1
  223   214   145 1
  224   215   142 1
  225   216   142 1
  226   217   174 1
  227   218   173 1
  228   219   171 1
  229   220   170 1
  230   221   169 1
  231   222   140 1
  232   223   167 1
  233   224   166 1
  234   225   165 1
  235   226   163 1
  236   227   161 1
  237   228   139 1
  238   229   139 1
  239   230   153 1
  240   231   152 1
  241   232   150 1
  242   233   149 1
  243   234   148 1
  244   235   162 1
  245   65    153 1
  246   65    174 1
@<TRIPOS>SUBSTRUCTURE
      1 CLA               1 ****               0 ****  **** 
      2 LUT             138 ****               0 ****  **** 
