@<TRIPOS>MOLECULE
Cpptraj generated mol2 file.
  235   246     2     0     0
SMALL
USER_CHARGES


@<TRIPOS>ATOM
      1 CAA        80.3960   59.1854   34.1903 a2         1 CLA     -0.055900
      2 CAB        79.3510   62.1010   43.2986 c8         1 CLA     -0.148500
      3 CAC        72.8352   57.7992   41.8821 a2         1 CLA     -0.012600
      4 CAD        76.3082   56.1180   34.6985 ck         1 CLA      0.398800
      5 NA         79.1095   58.9595   37.4869 ns         1 CLA     -0.225500
      6 CBA        81.6566   59.1217   33.3610 a2         1 CLA     -0.135000
      7 CBB        80.4683   62.4785   43.9799 c0         1 CLA     -0.395200
      8 CBC        73.2381   56.3005   41.8891 a3         1 CLA     -0.037700
      9 CBD        77.7233   56.7982   34.5262 a1         1 CLA     -0.053900
     10 NB         78.6290   60.3686   40.0231 nm         1 CLA     -0.295700
     11 OBD        75.8143   55.4312   33.8129 o2         1 CLA     -0.494600
     12 CGA        82.3080   57.7863   32.9892 c4         1 CLA      0.827000
     13 CGD        78.8510   55.8892   34.0684 c4         1 CLA      0.655300
     14 ND         76.3560   57.9391   37.7307 nm         1 CLA     -0.291600
     15 CED        79.7721   53.7347   34.3767 a3         1 CLA      0.005400
     16 CHA        77.9810   57.6143   35.8311 cs         1 CLA     -0.123800
     17 CHB        80.7271   60.4058   38.7267 aa         1 CLA     -0.291900
     18 CHC        77.0141   60.6012   41.8273 aa         1 CLA     -0.090400
     19 CHD        74.2745   57.7009   39.1040 aa         1 CLA     -0.052000
     20 CMA        82.5185   58.3194   37.1796 a3         1 CLA     -0.230700
     21 CMB        81.7604   62.3287   40.9559 a3         1 CLA     -0.180800
     22 CMC        74.5682   60.0087   43.5643 a3         1 CLA     -0.134000
     23 CMD        73.3845   55.7780   36.8171 a3         1 CLA     -0.141100
     24 C1         83.3003   55.7931   33.7693 a2         1 CLA      0.023000
     25 C1A        79.0715   58.3496   36.2404 ac         1 CLA     -0.015100
     26 C1B        79.9153   60.8213   39.8061 cr         1 CLA      0.054700
     27 C1C        75.9624   59.8072   41.3777 cn         1 CLA     -0.005600
     28 C1D        75.0604   57.4743   37.8898 ap         1 CLA     -0.047300
     29 O1A        82.2046   57.2567   31.9121 o2         1 CLA     -0.610800
     30 O1D        79.6735   56.1279   33.1739 o2         1 CLA     -0.558200
     31 C2         83.8744   55.3069   35.1103 c8         1 CLA     -0.325100
     32 C2A        80.4187   58.3930   35.5662 a1         1 CLA      0.098600
     33 C2B        80.4231   61.5782   40.9306 cb         1 CLA      0.088500
     34 C2C        74.7482   59.5422   42.2152 cb         1 CLA      0.053700
     35 C2D        74.6753   56.5570   36.8125 cb         1 CLA      0.058900
     36 O2A        82.9602   57.1971   34.0507 o1         1 CLA     -0.437200
     37 O2D        78.7731   54.6665   34.7307 o1         1 CLA     -0.357600
     38 C3         84.9296   54.4624   35.3069 c5         1 CLA      0.031200
     39 C3A        81.3232   59.0978   36.6330 a1         1 CLA      0.166800
     40 C3B        79.3828   61.5575   41.9427 cb         1 CLA      0.035000
     41 C3C        73.9945   58.6412   41.4592 cb         1 CLA     -0.089900
     42 C3D        75.7469   56.5514   36.0092 cb         1 CLA     -0.035900
     43 C4         84.8477   52.9074   35.4255 a3         1 CLA     -0.053300
     44 C4A        80.3294   59.5213   37.7182 ac         1 CLA      0.001800
     45 C4B        78.2489   60.8443   41.2913 cn         1 CLA     -0.020900
     46 C4C        74.6562   58.5295   40.1724 cr         1 CLA     -0.044400
     47 C4D        76.7374   57.4585   36.5678 c6         1 CLA     -0.046000
     48 C5         86.2538   55.1352   35.2541 a2         1 CLA     -0.070400
     49 C6         86.5600   56.2173   36.3182 a2         1 CLA      0.043900
     50 C7         86.7567   55.7591   37.7969 a2         1 CLA     -0.150000
     51 C8         87.0769   56.8389   38.8483 a1         1 CLA      0.064200
     52 C9         88.3351   57.6719   38.4157 a3         1 CLA     -0.259300
     53 C10        87.2551   56.2423   40.3020 a2         1 CLA     -0.071900
     54 C11        87.6816   57.2884   41.3224 a2         1 CLA      0.014500
     55 C12        87.5417   56.6077   42.6760 a2         1 CLA     -0.112100
     56 C13        87.8421   57.4550   43.9808 a1         1 CLA      0.089200
     57 C14        89.2473   58.0043   44.1193 a3         1 CLA     -0.239100
     58 C15        87.3328   56.6442   45.1752 a2         1 CLA     -0.102200
     59 C16        85.8316   56.7488   45.5355 a2         1 CLA      0.023900
     60 C17        85.1776   58.1850   45.6767 a2         1 CLA     -0.105700
     61 C18        83.6421   58.0490   45.9260 a1         1 CLA      0.206800
     62 C19        83.4139   57.3857   47.2901 a3         1 CLA     -0.280100
     63 C20        82.8721   59.4643   45.9579 a3         1 CLA     -0.280100
     64 NC         75.8570   59.3019   40.1732 nx         1 CLA     -0.309200
     65 MG         77.4393   59.3158   38.7245 mg         1 CLA      0.895000
     66 HMD3       73.7235   54.9881   37.4525 dc         1 CLA      0.064300
     67 HMD2       72.5611   56.2515   37.3082 dc         1 CLA      0.064300
     68 HMD1       73.2415   55.3065   35.8471 dc         1 CLA      0.064300
     69 HMC3       73.4852   59.9803   43.7949 dc         1 CLA      0.052100
     70 HMC2       75.1336   59.3741   44.2444 dc         1 CLA      0.052100
     71 HMC1       74.9330   61.0267   43.7748 dc         1 CLA      0.052100
     72 HMB3       82.1168   62.6961   40.0007 dc         1 CLA      0.063600
     73 HMB2       81.6685   63.3027   41.4997 dc         1 CLA      0.063600
     74 HMB1       82.6037   61.7368   41.3593 dc         1 CLA      0.063600
     75 HMA3       83.3610   58.3753   36.5317 dc         1 CLA      0.058300
     76 HMA2       82.7043   58.7013   38.2304 dc         1 CLA      0.058300
     77 HMA1       82.2689   57.2258   37.3332 dc         1 CLA      0.058300
     78 HED3       80.6194   53.9947   34.9290 dc         1 CLA      0.079300
     79 HED2       79.3582   52.8006   34.7566 dc         1 CLA      0.079300
     80 HED1       79.9637   53.7437   33.2995 dc         1 CLA      0.079300
     81 HBC3       73.7939   56.0301   41.0127 dc         1 CLA      0.016300
     82 HBC2       73.8183   56.0568   42.7238 dc         1 CLA      0.016300
     83 HBC1       72.3379   55.7510   41.9087 dc         1 CLA      0.016300
     84 HBB2       80.3785   62.9257   45.0090 da         1 CLA      0.183000
     85 HBB1       81.5127   62.4556   43.6142 da         1 CLA      0.183000
     86 HBA2       81.4161   59.7506   32.4247 dc         1 CLA      0.029400
     87 HBA1       82.4753   59.5527   33.8999 dc         1 CLA      0.029400
     88 HAC2       72.4982   58.0673   42.8812 dc         1 CLA      0.029300
     89 HAC1       72.0236   57.9600   41.1307 dc         1 CLA      0.029300
     90 HAA2       79.5343   58.8544   33.6142 dc         1 CLA      0.028700
     91 HAA1       80.1913   60.2094   34.4112 dc         1 CLA      0.028700
     92 H203       81.7862   59.3499   46.2168 dc         1 CLA      0.065600
     93 H202       83.3255   60.1910   46.6336 dc         1 CLA      0.065600
     94 H201       82.8888   59.8641   44.9208 dc         1 CLA      0.065600
     95 H193       82.3732   57.3194   47.5515 dc         1 CLA      0.065600
     96 H192       83.8301   56.3572   47.3866 dc         1 CLA      0.065600
     97 H191       83.8320   57.9649   48.0586 dc         1 CLA      0.065600
     98 H172       85.5901   58.5855   46.6271 dc         1 CLA      0.027600
     99 H171       85.4868   58.8566   44.8234 dc         1 CLA      0.027600
    100 H162       85.3032   56.1934   44.8200 dc         1 CLA      0.002900
    101 H161       85.6736   56.2400   46.4397 dc         1 CLA      0.002900
    102 H152       87.6039   55.6298   45.1007 dc         1 CLA      0.029100
    103 H151       87.7570   57.1452   46.0632 dc         1 CLA      0.029100
    104 H143       89.4673   58.5502   45.0781 dc         1 CLA      0.063600
    105 H142       89.9051   57.2046   44.0578 dc         1 CLA      0.063600
    106 H141       89.3426   58.7078   43.2951 dc         1 CLA      0.063600
    107 H122       86.6110   56.0084   42.6701 dc         1 CLA      0.032500
    108 H121       88.4088   55.8548   42.7512 dc         1 CLA      0.032500
    109 H112       88.6559   57.5754   41.1690 dc         1 CLA      0.006600
    110 H111       87.1399   58.2091   41.2752 dc         1 CLA      0.006600
    111 H102       86.2479   55.8154   40.5302 dc         1 CLA      0.024100
    112 H101       88.0876   55.5109   40.2564 dc         1 CLA      0.024100
    113 HHD        73.3235   57.1577   39.2169 da         1 CLA      0.174300
    114 HHC        76.8428   60.9858   42.8875 da         1 CLA      0.136800
    115 HHB        81.7728   60.7560   38.6482 da         1 CLA      0.138300
    116 HBD        77.5340   57.4228   33.6376 dc         1 CLA      0.107700
    117 HAB        78.3833   62.2297   43.8037 da         1 CLA      0.155200
    118 H93        89.2835   57.1034   38.4707 dc         1 CLA      0.069500
    119 H92        88.3155   58.0489   37.3485 dc         1 CLA      0.069500
    120 H91        88.4348   58.5627   39.0553 dc         1 CLA      0.069500
    121 H8         86.1740   57.3997   38.8934 dc         1 CLA      0.029300
    122 H72        85.8084   55.2950   38.1099 dc         1 CLA      0.044400
    123 H71        87.5813   55.0532   37.9521 dc         1 CLA      0.044400
    124 H62        87.4546   56.7069   35.8826 dc         1 CLA      0.015600
    125 H61        85.7414   56.9602   36.3636 dc         1 CLA      0.015600
    126 H52        87.1033   54.4464   35.4653 dc         1 CLA      0.033200
    127 H51        86.3975   55.6363   34.2724 dc         1 CLA      0.033200
    128 H43        85.4600   52.8980   36.3383 dc         1 CLA      0.037000
    129 H42        83.8261   52.5918   35.5640 dc         1 CLA      0.037000
    130 H41        85.3722   52.4132   34.5250 dc         1 CLA      0.037000
    131 H3A        81.8226   59.9739   36.2442 dc         1 CLA      0.041100
    132 H2A        80.6245   57.3587   35.4344 dc         1 CLA      0.083100
    133 H2         83.5703   55.8392   36.0364 da         1 CLA      0.180900
    134 H18        83.1718   57.4262   45.1067 dc         1 CLA     -0.003900
    135 H13        87.2858   58.3354   43.9148 dc         1 CLA      0.019700
    136 H12        82.4585   55.1706   33.5620 dc         1 CLA      0.120400
    137 H11        84.0439   55.6610   32.9410 dc         1 CLA      0.120400
    138 C1         69.1551   61.1855   49.3564 Z1         2 LUT      0.509236
    139 C2         67.7031   61.0723   49.7738 Z2         2 LUT     -0.434695
    140 C3         66.9575   62.4162   50.0911 Z3         2 LUT      0.437453
    141 O3         67.2136   62.7916   51.4793 S1         2 LUT     -0.547129
    142 C4         67.2753   63.5181   49.1441 Z4         2 LUT     -0.468603
    143 C5         68.4207   63.3932   48.2289 Z5         2 LUT      0.279246
    144 C6         69.3212   62.3276   48.2564 Z6         2 LUT     -0.305473
    145 C7         70.0543   61.9905   46.9916 Z7         2 LUT      0.069402
    146 C8         70.9142   62.7483   46.3093 Z8         2 LUT     -0.191631
    147 C9         71.5663   62.4209   45.0133 Z9         2 LUT      0.196698
    148 C10        72.5042   63.2459   44.4935 Y1         2 LUT     -0.208611
    149 C11        73.2931   63.2282   43.2288 Y2         2 LUT      0.030784
    150 C12        74.4043   63.8706   42.8552 Y3         2 LUT     -0.220316
    151 C13        75.1376   63.7331   41.5762 Y4         2 LUT      0.215937
    152 C14        76.3320   64.2839   41.6537 Y5         2 LUT     -0.185793
    153 C15        77.4108   64.2155   40.6138 Y6         2 LUT     -0.057835
    154 C16        69.7900   59.8291   49.0276 Y7         2 LUT     -0.405615
    155 C17        70.0178   61.5913   50.5328 Y7         2 LUT     -0.405615
    156 C18        68.1550   64.2727   47.0196 Y9         2 LUT     -0.369639
    157 C19        71.1122   61.2522   44.2229 W1         2 LUT     -0.333362
    158 C20        74.5060   63.0771   40.3940 W2         2 LUT     -0.323439
    159 C21        88.5997   66.3046   34.8711 Z1         2 LUT      0.406104
    160 C22        89.4811   65.6776   33.8020 Z2         2 LUT     -0.404965
    161 C23        89.8352   66.5279   32.5165 Z3         2 LUT      0.391255
    162 O23        90.3530   65.6805   31.4805 S1         2 LUT     -0.528210
    163 C24        88.6362   67.3838   32.2072 W6         2 LUT     -0.258361
    164 C25        87.5062   67.5002   32.9326 Z5         2 LUT      0.133546
    165 C26        87.2625   66.7642   34.2305 W8         2 LUT     -0.147008
    166 C27        86.3776   67.5236   35.1373 Z7         2 LUT      0.023843
    167 C28        85.3241   66.8547   35.6542 Z8         2 LUT     -0.216987
    168 C29        84.6486   67.2568   36.8802 Z9         2 LUT      0.206524
    169 C30        83.6307   66.5032   37.3201 Y1         2 LUT     -0.215556
    170 C31        82.8111   66.5676   38.4655 Y2         2 LUT      0.025142
    171 C32        81.6980   65.8406   38.7030 Y3         2 LUT     -0.212209
    172 C33        80.7734   66.0239   39.8539 Y4         2 LUT      0.240937
    173 C34        79.6143   65.2311   39.9577 Y5         2 LUT     -0.218862
    174 C35        78.5143   65.0841   40.8279 Y6         2 LUT     -0.023547
    175 C36        89.4800   67.4438   35.5000 Y7         2 LUT     -0.393485
    176 C37        88.3305   65.3269   36.0166 Y7         2 LUT     -0.393485
    177 C38        86.4365   68.3055   32.3785 Y9         2 LUT     -0.387526
    178 C39        85.3070   68.2980   37.7454 W1         2 LUT     -0.322618
    179 C40        80.9966   67.1510   40.7749 W2         2 LUT     -0.358472
    180 H403       80.3198   67.1332   41.6310 R7         2 LUT      0.097720
    181 H402       81.9097   67.1219   41.3456 R7         2 LUT      0.097720
    182 H401       80.9532   68.1345   40.3485 R7         2 LUT      0.097720
    183 H393       84.8903   68.4818   38.7222 R4         2 LUT      0.082505
    184 H392       86.3116   68.0336   38.0422 R4         2 LUT      0.082505
    185 H391       85.3689   69.2531   37.1743 R4         2 LUT      0.082505
    186 H383       85.6202   67.8293   31.8489 R1         2 LUT      0.104030
    187 H382       85.8548   68.8471   33.1208 R1         2 LUT      0.104030
    188 H381       86.7062   69.1469   31.7020 R1         2 LUT      0.104030
    189 H373       89.3869   65.1141   36.4020 T4         2 LUT      0.089537
    190 H372       87.6933   65.8259   36.8330 T4         2 LUT      0.089537
    191 H371       87.7561   64.4458   35.6828 T4         2 LUT      0.089537
    192 H363       89.5051   68.2790   34.7880 T4         2 LUT      0.089537
    193 H362       89.1280   67.7681   36.4611 T4         2 LUT      0.089537
    194 H361       90.5543   67.0999   35.6954 T4         2 LUT      0.089537
    195 H222       90.4535   65.3121   34.1523 U2         2 LUT      0.127376
    196 H221       88.8626   64.9994   33.2293 U2         2 LUT      0.127376
    197 H203       74.7633   62.0582   40.2040 R7         2 LUT      0.087068
    198 H202       73.4549   63.2122   40.3867 R7         2 LUT      0.087068
    199 H201       74.9886   63.6398   39.5831 R7         2 LUT      0.087068
    200 H193       71.3146   61.2652   43.1433 R4         2 LUT      0.089716
    201 H192       71.4697   60.2824   44.5367 R4         2 LUT      0.089716
    202 H191       70.0317   61.2711   44.1076 R4         2 LUT      0.089716
    203 H183       68.9731   64.9921   47.0815 R1         2 LUT      0.094572
    204 H182       68.2721   63.7570   46.1248 R1         2 LUT      0.094572
    205 H181       67.2649   64.8740   46.9378 R1         2 LUT      0.094572
    206 H173       70.2557   60.7395   51.1826 T4         2 LUT      0.093752
    207 H172       70.9815   61.8807   50.2767 T4         2 LUT      0.093752
    208 H171       69.6221   62.4051   51.1406 T4         2 LUT      0.093752
    209 H163       70.9093   59.8590   48.9617 T4         2 LUT      0.093752
    210 H162       69.6515   59.0626   49.7787 T4         2 LUT      0.093752
    211 H161       69.4043   59.4970   48.0098 T4         2 LUT      0.093752
    212 HO3        66.8525   62.1139   52.0703 Q1         2 LUT      0.300121
    213 H8         71.2871   63.5957   46.8473 U7         2 LUT      0.080784
    214 H7         69.7426   61.0842   46.5291 U6         2 LUT      0.042190
    215 H42        66.3727   63.6959   48.5294 U5         2 LUT      0.145166
    216 H41        67.3799   64.4524   49.7379 U5         2 LUT      0.145166
    217 H35        78.5195   65.6338   41.7539 T3         2 LUT      0.077919
    218 H34        79.5469   64.4593   39.1982 T2         2 LUT      0.073626
    219 H32        81.4979   65.0762   37.9870 T1         2 LUT      0.092510
    220 H31        82.9012   67.3142   39.2014 U9         2 LUT      0.070048
    221 H30        83.1558   65.7720   36.6544 U8         2 LUT      0.085442
    222 H3         65.8786   62.2438   49.9021 U3         2 LUT     -0.031596
    223 H28        84.9288   65.9663   35.1311 U7         2 LUT      0.084728
    224 H27        86.8532   68.3203   35.7031 U6         2 LUT      0.087291
    225 H26        86.8449   65.8926   33.7366 Q6         2 LUT      0.075325
    226 H24        88.6385   67.8770   31.2387 Q5         2 LUT      0.094482
    227 H23        90.7362   67.2259   32.7715 U3         2 LUT     -0.024869
    228 H22        67.2018   60.5087   48.9692 U2         2 LUT      0.127376
    229 H21        67.6696   60.2988   50.5479 U2         2 LUT      0.127376
    230 H15        77.2803   63.5687   39.7867 T3         2 LUT      0.093200
    231 H14        76.5877   64.6581   42.6238 T2         2 LUT      0.068865
    232 H12        74.8179   64.5466   43.6013 T1         2 LUT      0.095507
    233 H11        73.0578   62.4629   42.5154 U9         2 LUT      0.068930
    234 H10        72.7172   64.0883   45.0642 U8         2 LUT      0.083911
    235 H1         90.5364   66.1320   30.5988 Q1         2 LUT      0.297311
@<TRIPOS>BOND
    1     6     1 1
    2     7     2 1
    3     8     3 1
    4     9     4 1
    5    11     4 1
    6    12     6 1
    7    13     9 1
    8    16     9 1
    9    25     5 1
   10    25    16 1
   11    26    10 1
   12    26    17 1
   13    27    18 1
   14    28    14 1
   15    28    19 1
   16    29    12 1
   17    30    13 1
   18    31    24 1
   19    32     1 1
   20    32    25 1
   21    33    21 1
   22    33    26 1
   23    34    22 1
   24    34    27 1
   25    35    23 1
   26    35    28 1
   27    36    12 1
   28    36    24 1
   29    37    13 1
   30    37    15 1
   31    38    31 1
   32    39    20 1
   33    39    32 1
   34    40     2 1
   35    40    33 1
   36    41     3 1
   37    41    34 1
   38    42     4 1
   39    42    35 1
   40    43    38 1
   41    44     5 1
   42    44    17 1
   43    44    39 1
   44    45    10 1
   45    45    18 1
   46    45    40 1
   47    46    19 1
   48    46    41 1
   49    47    14 1
   50    47    16 1
   51    47    42 1
   52    48    38 1
   53    49    48 1
   54    50    49 1
   55    51    50 1
   56    52    51 1
   57    53    51 1
   58    54    53 1
   59    55    54 1
   60    56    55 1
   61    57    56 1
   62    58    56 1
   63    59    58 1
   64    60    59 1
   65    61    60 1
   66    62    61 1
   67    63    61 1
   68    64    27 1
   69    64    46 1
   70    65     5 1
   71    65    10 1
   72    65    64 1
   73    65    14 1
   74    66    23 1
   75    67    23 1
   76    68    23 1
   77    69    22 1
   78    70    22 1
   79    71    22 1
   80    72    21 1
   81    73    21 1
   82    74    21 1
   83    75    20 1
   84    76    20 1
   85    77    20 1
   86    78    15 1
   87    79    15 1
   88    80    15 1
   89    81     8 1
   90    82     8 1
   91    83     8 1
   92    84     7 1
   93    85     7 1
   94    86     6 1
   95    87     6 1
   96    88     3 1
   97    89     3 1
   98    90     1 1
   99    91     1 1
  100    92    63 1
  101    93    63 1
  102    94    63 1
  103    95    62 1
  104    96    62 1
  105    97    62 1
  106    98    60 1
  107    99    60 1
  108   100    59 1
  109   101    59 1
  110   102    58 1
  111   103    58 1
  112   104    57 1
  113   105    57 1
  114   106    57 1
  115   107    55 1
  116   108    55 1
  117   109    54 1
  118   110    54 1
  119   111    53 1
  120   112    53 1
  121   113    19 1
  122   114    18 1
  123   115    17 1
  124   116     9 1
  125   117     2 1
  126   118    52 1
  127   119    52 1
  128   120    52 1
  129   121    51 1
  130   122    50 1
  131   123    50 1
  132   124    49 1
  133   125    49 1
  134   126    48 1
  135   127    48 1
  136   128    43 1
  137   129    43 1
  138   130    43 1
  139   131    39 1
  140   132    32 1
  141   133    31 1
  142   134    61 1
  143   135    56 1
  144   136    24 1
  145   137    24 1
  146   139   138 1
  147   140   139 1
  148   141   140 1
  149   142   140 1
  150   143   142 1
  151   144   138 1
  152   144   143 1
  153   145   144 1
  154   146   145 1
  155   147   146 1
  156   148   147 1
  157   149   148 1
  158   150   149 1
  159   151   150 1
  160   152   151 1
  161   153   152 1
  162   154   138 1
  163   155   138 1
  164   156   143 1
  165   157   147 1
  166   158   151 1
  167   160   159 1
  168   161   160 1
  169   162   161 1
  170   163   161 1
  171   164   163 1
  172   165   159 1
  173   165   164 1
  174   166   165 1
  175   167   166 1
  176   168   167 1
  177   169   168 1
  178   170   169 1
  179   171   170 1
  180   172   171 1
  181   173   172 1
  182   174   153 1
  183   174   173 1
  184   175   159 1
  185   176   159 1
  186   177   164 1
  187   178   168 1
  188   179   172 1
  189   180   179 1
  190   181   179 1
  191   182   179 1
  192   183   178 1
  193   184   178 1
  194   185   178 1
  195   186   177 1
  196   187   177 1
  197   188   177 1
  198   189   176 1
  199   190   176 1
  200   191   176 1
  201   192   175 1
  202   193   175 1
  203   194   175 1
  204   195   160 1
  205   196   160 1
  206   197   158 1
  207   198   158 1
  208   199   158 1
  209   200   157 1
  210   201   157 1
  211   202   157 1
  212   203   156 1
  213   204   156 1
  214   205   156 1
  215   206   155 1
  216   207   155 1
  217   208   155 1
  218   209   154 1
  219   210   154 1
  220   211   154 1
  221   212   141 1
  222   213   146 1
  223   214   145 1
  224   215   142 1
  225   216   142 1
  226   217   174 1
  227   218   173 1
  228   219   171 1
  229   220   170 1
  230   221   169 1
  231   222   140 1
  232   223   167 1
  233   224   166 1
  234   225   165 1
  235   226   163 1
  236   227   161 1
  237   228   139 1
  238   229   139 1
  239   230   153 1
  240   231   152 1
  241   232   150 1
  242   233   149 1
  243   234   148 1
  244   235   162 1
  245   65    153 1
  246   65    174 1
@<TRIPOS>SUBSTRUCTURE
      1 CLA               1 ****               0 ****  **** 
      2 LUT             138 ****               0 ****  **** 
