@<TRIPOS>MOLECULE
Cpptraj generated mol2 file.
  235   246     2     0     0
SMALL
USER_CHARGES


@<TRIPOS>ATOM
      1 CAA        79.0026   59.1058   34.3356 a2         1 CLA     -0.055900
      2 CAB        78.8999   62.7703   43.2435 c8         1 CLA     -0.148500
      3 CAC        72.1678   58.6269   42.7813 a2         1 CLA     -0.012600
      4 CAD        74.9581   56.4388   35.5552 ck         1 CLA      0.398800
      5 NA         78.0193   59.3750   37.8002 ns         1 CLA     -0.225500
      6 CBA        80.3629   59.1292   33.5205 a2         1 CLA     -0.135000
      7 CBB        79.5199   63.9015   43.5751 c0         1 CLA     -0.395200
      8 CBC        72.3249   57.1296   43.1116 a3         1 CLA     -0.037700
      9 CBD        76.3683   57.0135   35.2170 a1         1 CLA     -0.053900
     10 NB         77.9565   60.7963   40.3669 nm         1 CLA     -0.295700
     11 OBD        74.3885   55.5732   34.8840 o2         1 CLA     -0.494600
     12 CGA        80.9865   57.7813   33.2268 c4         1 CLA      0.827000
     13 CGD        77.3908   55.8821   34.9745 c4         1 CLA      0.655300
     14 ND         75.2381   58.4154   38.4116 nm         1 CLA     -0.291600
     15 CED        78.5563   54.0213   35.6778 a3         1 CLA      0.005400
     16 CHA        76.6230   57.9202   36.4543 cs         1 CLA     -0.123800
     17 CHB        79.8729   60.6768   38.7669 aa         1 CLA     -0.291900
     18 CHC        76.5231   61.2300   42.3577 aa         1 CLA     -0.090400
     19 CHD        73.4234   58.3761   39.9581 aa         1 CLA     -0.052000
     20 CMA        81.3818   58.5517   36.9873 a3         1 CLA     -0.230700
     21 CMB        81.1403   62.6606   40.8601 a3         1 CLA     -0.180800
     22 CMC        74.0805   60.7209   44.4297 a3         1 CLA     -0.134000
     23 CMD        72.0409   56.7126   37.5010 a3         1 CLA     -0.141100
     24 C1         82.4631   55.9909   34.1271 a2         1 CLA      0.023000
     25 C1A        77.8021   58.5897   36.6852 ac         1 CLA     -0.015100
     26 C1B        79.2168   61.1350   39.9995 cr         1 CLA      0.054700
     27 C1C        75.3923   60.4377   42.1146 cn         1 CLA     -0.005600
     28 C1D        73.9950   58.0535   38.7364 ap         1 CLA     -0.047300
     29 O1A        80.8186   57.1883   32.1594 o2         1 CLA     -0.610800
     30 O1D        78.2641   55.9776   34.0879 o2         1 CLA     -0.558200
     31 C2         83.5526   55.9575   35.0596 c8         1 CLA     -0.325100
     32 C2A        79.1033   58.5393   35.7747 a1         1 CLA      0.098600
     33 C2B        79.7799   62.0395   40.9286 cb         1 CLA      0.088500
     34 C2C        74.2948   60.1790   43.0010 cb         1 CLA      0.053700
     35 C2D        73.4341   57.2160   37.6724 cb         1 CLA      0.058900
     36 O2A        81.7878   57.2494   34.2473 o1         1 CLA     -0.437200
     37 O2D        77.3922   54.9162   35.8492 o1         1 CLA     -0.357600
     38 C3         84.2256   54.8806   35.3449 c5         1 CLA      0.031200
     39 C3A        80.1165   59.3267   36.5917 a1         1 CLA      0.166800
     40 C3B        78.7986   62.1933   41.8672 cb         1 CLA      0.035000
     41 C3C        73.3930   59.3426   42.2381 cb         1 CLA     -0.089900
     42 C3D        74.5015   57.0786   36.7668 cb         1 CLA     -0.035900
     43 C4         83.6683   53.8029   36.2716 a3         1 CLA     -0.053300
     44 C4A        79.3317   59.8121   37.8240 ac         1 CLA      0.001800
     45 C4B        77.6933   61.3395   41.5696 cn         1 CLA     -0.020900
     46 C4C        73.9975   59.1713   40.9422 cr         1 CLA     -0.044400
     47 C4D        75.5325   57.8532   37.2357 c6         1 CLA     -0.046000
     48 C5         85.3548   54.4805   34.4451 a2         1 CLA     -0.070400
     49 C6         86.7527   55.1809   34.5613 a2         1 CLA      0.043900
     50 C7         87.3216   55.2616   35.9935 a2         1 CLA     -0.150000
     51 C8         86.8384   56.4744   36.8432 a1         1 CLA      0.064200
     52 C9         87.8251   57.6525   36.4689 a3         1 CLA     -0.259300
     53 C10        86.7918   56.0380   38.3685 a2         1 CLA     -0.071900
     54 C11        86.5669   57.2091   39.2271 a2         1 CLA      0.014500
     55 C12        86.2471   56.8137   40.6683 a2         1 CLA     -0.112100
     56 C13        86.2232   58.0283   41.6535 a1         1 CLA      0.089200
     57 C14        87.6791   58.5569   42.0938 a3         1 CLA     -0.239100
     58 C15        85.3065   57.6231   42.7700 a2         1 CLA     -0.102200
     59 C16        85.0641   58.6302   43.8700 a2         1 CLA      0.023900
     60 C17        84.0033   58.0496   44.8277 a2         1 CLA     -0.105700
     61 C18        83.5875   59.0174   45.9689 a1         1 CLA      0.206800
     62 C19        82.7564   60.2491   45.5736 a3         1 CLA     -0.280100
     63 C20        82.8754   58.2238   47.0456 a3         1 CLA     -0.280100
     64 NC         75.2329   59.8339   40.8825 nx         1 CLA     -0.309200
     65 MG         76.5870   59.7677   39.2363 mg         1 CLA      0.895000
     66 HMD3       71.6526   56.2446   38.3873 dc         1 CLA      0.064300
     67 HMD2       71.3918   57.4810   37.2131 dc         1 CLA      0.064300
     68 HMD1       72.0385   55.9962   36.6971 dc         1 CLA      0.064300
     69 HMC3       73.2331   61.4024   44.5061 dc         1 CLA      0.052100
     70 HMC2       73.9467   59.8033   44.9627 dc         1 CLA      0.052100
     71 HMC1       75.0155   61.1445   44.9047 dc         1 CLA      0.052100
     72 HMB3       81.0570   63.5718   40.2480 dc         1 CLA      0.063600
     73 HMB2       81.4337   62.9469   41.8400 dc         1 CLA      0.063600
     74 HMB1       81.8594   61.9089   40.4109 dc         1 CLA      0.063600
     75 HMA3       81.9261   58.9920   37.8356 dc         1 CLA      0.058300
     76 HMA2       81.0097   57.5014   37.1870 dc         1 CLA      0.058300
     77 HMA1       82.0340   58.6666   36.1435 dc         1 CLA      0.058300
     78 HED3       78.6092   53.2638   36.4668 dc         1 CLA      0.079300
     79 HED2       78.5344   53.5065   34.7869 dc         1 CLA      0.079300
     80 HED1       79.5186   54.5444   35.7146 dc         1 CLA      0.079300
     81 HBC3       71.3318   56.7336   43.3561 dc         1 CLA      0.016300
     82 HBC2       72.6377   56.6179   42.2469 dc         1 CLA      0.016300
     83 HBC1       72.9973   56.9176   43.9318 dc         1 CLA      0.016300
     84 HBB2       79.5354   64.3451   44.5947 da         1 CLA      0.183000
     85 HBB1       80.1254   64.5186   42.8463 da         1 CLA      0.183000
     86 HBA2       80.2674   59.4496   32.5049 dc         1 CLA      0.029400
     87 HBA1       81.1041   59.7213   34.0220 dc         1 CLA      0.029400
     88 HAC2       71.9395   59.1913   43.6993 dc         1 CLA      0.029300
     89 HAC1       71.4028   58.6867   42.0194 dc         1 CLA      0.029300
     90 HAA2       78.2117   58.5859   33.7140 dc         1 CLA      0.028700
     91 HAA1       78.7143   60.1448   34.4022 dc         1 CLA      0.028700
     92 H203       83.4948   57.3663   47.2453 dc         1 CLA      0.065600
     93 H202       82.7779   58.9233   47.9355 dc         1 CLA      0.065600
     94 H201       81.9035   57.9103   46.7891 dc         1 CLA      0.065600
     95 H193       83.2693   60.6965   44.7768 dc         1 CLA      0.065600
     96 H192       81.7337   60.0285   45.3131 dc         1 CLA      0.065600
     97 H191       82.7375   60.9133   46.4359 dc         1 CLA      0.065600
     98 H172       83.1237   57.9835   44.1873 dc         1 CLA      0.027600
     99 H171       84.3258   57.0604   45.2538 dc         1 CLA      0.027600
    100 H162       85.8895   59.1517   44.4002 dc         1 CLA      0.002900
    101 H161       84.5582   59.4300   43.2882 dc         1 CLA      0.002900
    102 H152       84.3040   57.4377   42.4328 dc         1 CLA      0.029100
    103 H151       85.7880   56.7830   43.2247 dc         1 CLA      0.029100
    104 H143       87.5811   59.5606   42.5913 dc         1 CLA      0.063600
    105 H142       88.0491   57.8216   42.8095 dc         1 CLA      0.063600
    106 H141       88.3792   58.5845   41.3116 dc         1 CLA      0.063600
    107 H122       85.2723   56.2818   40.7548 dc         1 CLA      0.032500
    108 H121       87.1114   56.2458   40.9757 dc         1 CLA      0.032500
    109 H112       87.4546   57.8046   39.2226 dc         1 CLA      0.006600
    110 H111       85.6557   57.7333   38.9148 dc         1 CLA      0.006600
    111 H102       85.9441   55.4407   38.6097 dc         1 CLA      0.024100
    112 H101       87.7651   55.6657   38.6209 dc         1 CLA      0.024100
    113 HHD        72.4708   57.9550   40.0604 da         1 CLA      0.174300
    114 HHC        76.5825   61.8375   43.2515 da         1 CLA      0.136800
    115 HHB        80.8609   61.0368   38.4580 da         1 CLA      0.138300
    116 HBD        76.3466   57.5762   34.3094 dc         1 CLA      0.107700
    117 HAB        78.2979   62.2649   44.0078 da         1 CLA      0.155200
    118 H93        87.6162   57.8659   35.3322 dc         1 CLA      0.069500
    119 H92        87.5154   58.5803   36.9946 dc         1 CLA      0.069500
    120 H91        88.8481   57.4598   36.7798 dc         1 CLA      0.069500
    121 H8         85.7459   56.6881   36.6861 dc         1 CLA      0.029300
    122 H72        87.0468   54.3641   36.5714 dc         1 CLA      0.044400
    123 H71        88.3538   55.2897   36.0185 dc         1 CLA      0.044400
    124 H62        87.4706   54.7761   33.8746 dc         1 CLA      0.015600
    125 H61        86.5711   56.1847   34.1369 dc         1 CLA      0.015600
    126 H52        85.6011   53.4471   34.7091 dc         1 CLA      0.033200
    127 H51        85.0232   54.5389   33.4188 dc         1 CLA      0.033200
    128 H43        83.5412   52.8127   35.8373 dc         1 CLA      0.037000
    129 H42        84.3560   53.6952   37.1076 dc         1 CLA      0.037000
    130 H41        82.6582   54.2007   36.5564 dc         1 CLA      0.037000
    131 H3A        80.3911   60.1918   36.0581 dc         1 CLA      0.041100
    132 H2A        79.3410   57.4348   35.6622 dc         1 CLA      0.083100
    133 H2         83.6096   56.8608   35.7491 da         1 CLA      0.180900
    134 H18        84.5091   59.2137   46.3751 dc         1 CLA     -0.003900
    135 H13        85.6965   58.8876   41.1367 dc         1 CLA      0.019700
    136 H12        81.8112   55.1582   34.2053 dc         1 CLA      0.120400
    137 H11        82.7840   55.9902   33.0751 dc         1 CLA      0.120400
    138 C1         69.1620   62.3788   50.0402 Z1         2 LUT      0.509236
    139 C2         67.7126   62.1603   50.5600 Z2         2 LUT     -0.434695
    140 C3         66.8025   63.3879   50.8095 Z3         2 LUT      0.437453
    141 O3         66.8196   63.6637   52.1882 S1         2 LUT     -0.547129
    142 C4         67.2023   64.5639   49.8723 Z4         2 LUT     -0.468603
    143 C5         68.0327   64.2225   48.6410 Z5         2 LUT      0.279246
    144 C6         68.9789   63.2415   48.7311 Z6         2 LUT     -0.305473
    145 C7         69.4581   62.6337   47.4745 Z7         2 LUT      0.069402
    146 C8         70.2243   63.2468   46.5421 Z8         2 LUT     -0.191631
    147 C9         70.7127   62.7323   45.2504 Z9         2 LUT      0.196698
    148 C10        71.5284   63.5627   44.4964 Y1         2 LUT     -0.208611
    149 C11        72.3052   63.4642   43.2975 Y2         2 LUT      0.030784
    150 C12        73.3778   64.2211   43.0266 Y3         2 LUT     -0.220316
    151 C13        74.2691   64.2129   41.9229 Y4         2 LUT      0.215937
    152 C14        75.3061   65.1657   42.0291 Y5         2 LUT     -0.185793
    153 C15        76.4404   65.2157   41.0621 Y6         2 LUT     -0.057835
    154 C16        69.8038   60.9748   49.8966 Y7         2 LUT     -0.405615
    155 C17        69.8987   63.0240   51.2417 Y7         2 LUT     -0.405615
    156 C18        67.6483   65.0325   47.4461 Y9         2 LUT     -0.369639
    157 C19        70.2136   61.3681   44.7051 W1         2 LUT     -0.333362
    158 C20        73.8718   63.3840   40.6845 W2         2 LUT     -0.323439
    159 C21        87.8027   65.9250   35.0279 Z1         2 LUT      0.406104
    160 C22        88.7058   65.5408   33.7643 Z2         2 LUT     -0.404965
    161 C23        88.8991   66.6682   32.7730 Z3         2 LUT      0.391255
    162 O23        89.8176   66.1111   31.7607 S1         2 LUT     -0.528210
    163 C24        87.6104   67.3745   32.3360 W6         2 LUT     -0.258361
    164 C25        86.5252   67.3452   33.1213 Z5         2 LUT      0.133546
    165 C26        86.4460   66.4392   34.4063 W8         2 LUT     -0.147008
    166 C27        85.6659   67.0639   35.5505 Z7         2 LUT      0.023843
    167 C28        84.6496   66.5891   36.3698 Z8         2 LUT     -0.216987
    168 C29        84.1536   66.9824   37.6432 Z9         2 LUT      0.206524
    169 C30        82.9371   66.4828   38.0138 Y1         2 LUT     -0.215556
    170 C31        82.1609   66.6454   39.1623 Y2         2 LUT      0.025142
    171 C32        80.8703   66.1758   39.3805 Y3         2 LUT     -0.212209
    172 C33        80.0067   66.3379   40.4941 Y4         2 LUT      0.240937
    173 C34        78.7729   65.7952   40.4613 Y5         2 LUT     -0.218862
    174 C35        77.6579   65.7680   41.3596 Y6         2 LUT     -0.023547
    175 C36        88.5183   67.0875   35.8412 Y7         2 LUT     -0.393485
    176 C37        87.7335   64.6266   35.9510 Y7         2 LUT     -0.393485
    177 C38        85.4027   68.3044   32.7955 Y9         2 LUT     -0.387526
    178 C39        85.0079   67.8482   38.5090 W1         2 LUT     -0.322618
    179 C40        80.5505   67.0674   41.7191 W2         2 LUT     -0.358472
    180 H403       79.7415   67.3991   42.4175 R7         2 LUT      0.097720
    181 H402       81.2852   66.4768   42.2065 R7         2 LUT      0.097720
    182 H401       80.9574   68.0435   41.4126 R7         2 LUT      0.097720
    183 H393       84.7563   68.9084   38.4042 R4         2 LUT      0.082505
    184 H392       85.0895   67.5154   39.5900 R4         2 LUT      0.082505
    185 H391       86.0094   68.0854   38.1183 R4         2 LUT      0.082505
    186 H383       85.0635   68.9894   33.6584 R1         2 LUT      0.104030
    187 H382       85.5904   68.9690   31.9079 R1         2 LUT      0.104030
    188 H381       84.5088   67.7321   32.5280 R1         2 LUT      0.104030
    189 H373       87.3943   63.7534   35.2978 T4         2 LUT      0.089537
    190 H372       88.6560   64.4382   36.4988 T4         2 LUT      0.089537
    191 H371       86.9966   64.8410   36.7367 T4         2 LUT      0.089537
    192 H363       88.8089   67.9201   35.1629 T4         2 LUT      0.089537
    193 H362       88.0079   67.5238   36.6460 T4         2 LUT      0.089537
    194 H361       89.5016   66.7515   36.2566 T4         2 LUT      0.089537
    195 H222       89.5865   65.0372   34.0407 U2         2 LUT      0.127376
    196 H221       88.1284   64.8308   33.1267 U2         2 LUT      0.127376
    197 H203       73.4940   62.3789   40.8023 R7         2 LUT      0.087068
    198 H202       73.0032   63.8695   40.2277 R7         2 LUT      0.087068
    199 H201       74.6560   63.3561   39.9855 R7         2 LUT      0.087068
    200 H193       70.3069   61.3457   43.6143 R4         2 LUT      0.089716
    201 H192       70.8168   60.5383   45.1552 R4         2 LUT      0.089716
    202 H191       69.1337   61.1920   44.8944 R4         2 LUT      0.089716
    203 H183       66.7177   65.5784   47.6138 R1         2 LUT      0.094572
    204 H182       68.3406   65.8001   47.2157 R1         2 LUT      0.094572
    205 H181       67.6832   64.4408   46.5497 R1         2 LUT      0.094572
    206 H173       69.7596   62.4626   52.1339 T4         2 LUT      0.093752
    207 H172       70.9606   63.0803   51.0240 T4         2 LUT      0.093752
    208 H171       69.3968   63.9692   51.4259 T4         2 LUT      0.093752
    209 H163       69.1810   60.2645   49.3086 T4         2 LUT      0.093752
    210 H162       70.7895   61.2069   49.5122 T4         2 LUT      0.093752
    211 H161       69.8355   60.4195   50.8179 T4         2 LUT      0.093752
    212 HO3        66.0002   64.1542   52.2551 Q1         2 LUT      0.300121
    213 H8         70.6054   64.2374   46.7982 U7         2 LUT      0.080784
    214 H7         69.1291   61.5348   47.2336 U6         2 LUT      0.042190
    215 H42        66.3529   65.2095   49.8746 U5         2 LUT      0.145166
    216 H41        67.7935   65.3004   50.4187 U5         2 LUT      0.145166
    217 H35        77.7072   66.1150   42.4613 T3         2 LUT      0.077919
    218 H34        78.5690   65.2094   39.5586 T2         2 LUT      0.073626
    219 H32        80.4784   65.6491   38.4689 T1         2 LUT      0.092510
    220 H31        82.7765   67.2101   39.9532 U9         2 LUT      0.070048
    221 H30        82.3398   65.8539   37.3062 U8         2 LUT      0.085442
    222 H3         65.8391   62.9520   50.5832 U3         2 LUT     -0.031596
    223 H28        84.1548   65.6688   36.0336 U7         2 LUT      0.084728
    224 H27        86.1271   68.0565   35.8156 U6         2 LUT      0.087291
    225 H26        85.9464   65.4753   34.0775 Q6         2 LUT      0.075325
    226 H24        87.5646   68.0270   31.4460 Q5         2 LUT      0.094482
    227 H23        89.6381   67.4115   33.1251 U3         2 LUT     -0.024869
    228 H22        67.1967   61.5602   49.7995 U2         2 LUT      0.127376
    229 H21        67.7490   61.5327   51.4201 U2         2 LUT      0.127376
    230 H15        76.4150   64.7553   40.0969 T3         2 LUT      0.093200
    231 H14        75.3748   65.6945   42.9385 T2         2 LUT      0.068865
    232 H12        73.4626   64.8909   43.8331 T1         2 LUT      0.095507
    233 H11        72.0826   62.7722   42.4967 U9         2 LUT      0.068930
    234 H10        71.6499   64.5978   44.9805 U8         2 LUT      0.083911
    235 H1         89.2835   65.8361   30.9740 Q1         2 LUT      0.297311
@<TRIPOS>BOND
    1     6     1 1
    2     7     2 1
    3     8     3 1
    4     9     4 1
    5    11     4 1
    6    12     6 1
    7    13     9 1
    8    16     9 1
    9    25     5 1
   10    25    16 1
   11    26    10 1
   12    26    17 1
   13    27    18 1
   14    28    14 1
   15    28    19 1
   16    29    12 1
   17    30    13 1
   18    31    24 1
   19    32     1 1
   20    32    25 1
   21    33    21 1
   22    33    26 1
   23    34    22 1
   24    34    27 1
   25    35    23 1
   26    35    28 1
   27    36    12 1
   28    36    24 1
   29    37    13 1
   30    37    15 1
   31    38    31 1
   32    39    20 1
   33    39    32 1
   34    40     2 1
   35    40    33 1
   36    41     3 1
   37    41    34 1
   38    42     4 1
   39    42    35 1
   40    43    38 1
   41    44     5 1
   42    44    17 1
   43    44    39 1
   44    45    10 1
   45    45    18 1
   46    45    40 1
   47    46    19 1
   48    46    41 1
   49    47    14 1
   50    47    16 1
   51    47    42 1
   52    48    38 1
   53    49    48 1
   54    50    49 1
   55    51    50 1
   56    52    51 1
   57    53    51 1
   58    54    53 1
   59    55    54 1
   60    56    55 1
   61    57    56 1
   62    58    56 1
   63    59    58 1
   64    60    59 1
   65    61    60 1
   66    62    61 1
   67    63    61 1
   68    64    27 1
   69    64    46 1
   70    65     5 1
   71    65    10 1
   72    65    64 1
   73    65    14 1
   74    66    23 1
   75    67    23 1
   76    68    23 1
   77    69    22 1
   78    70    22 1
   79    71    22 1
   80    72    21 1
   81    73    21 1
   82    74    21 1
   83    75    20 1
   84    76    20 1
   85    77    20 1
   86    78    15 1
   87    79    15 1
   88    80    15 1
   89    81     8 1
   90    82     8 1
   91    83     8 1
   92    84     7 1
   93    85     7 1
   94    86     6 1
   95    87     6 1
   96    88     3 1
   97    89     3 1
   98    90     1 1
   99    91     1 1
  100    92    63 1
  101    93    63 1
  102    94    63 1
  103    95    62 1
  104    96    62 1
  105    97    62 1
  106    98    60 1
  107    99    60 1
  108   100    59 1
  109   101    59 1
  110   102    58 1
  111   103    58 1
  112   104    57 1
  113   105    57 1
  114   106    57 1
  115   107    55 1
  116   108    55 1
  117   109    54 1
  118   110    54 1
  119   111    53 1
  120   112    53 1
  121   113    19 1
  122   114    18 1
  123   115    17 1
  124   116     9 1
  125   117     2 1
  126   118    52 1
  127   119    52 1
  128   120    52 1
  129   121    51 1
  130   122    50 1
  131   123    50 1
  132   124    49 1
  133   125    49 1
  134   126    48 1
  135   127    48 1
  136   128    43 1
  137   129    43 1
  138   130    43 1
  139   131    39 1
  140   132    32 1
  141   133    31 1
  142   134    61 1
  143   135    56 1
  144   136    24 1
  145   137    24 1
  146   139   138 1
  147   140   139 1
  148   141   140 1
  149   142   140 1
  150   143   142 1
  151   144   138 1
  152   144   143 1
  153   145   144 1
  154   146   145 1
  155   147   146 1
  156   148   147 1
  157   149   148 1
  158   150   149 1
  159   151   150 1
  160   152   151 1
  161   153   152 1
  162   154   138 1
  163   155   138 1
  164   156   143 1
  165   157   147 1
  166   158   151 1
  167   160   159 1
  168   161   160 1
  169   162   161 1
  170   163   161 1
  171   164   163 1
  172   165   159 1
  173   165   164 1
  174   166   165 1
  175   167   166 1
  176   168   167 1
  177   169   168 1
  178   170   169 1
  179   171   170 1
  180   172   171 1
  181   173   172 1
  182   174   153 1
  183   174   173 1
  184   175   159 1
  185   176   159 1
  186   177   164 1
  187   178   168 1
  188   179   172 1
  189   180   179 1
  190   181   179 1
  191   182   179 1
  192   183   178 1
  193   184   178 1
  194   185   178 1
  195   186   177 1
  196   187   177 1
  197   188   177 1
  198   189   176 1
  199   190   176 1
  200   191   176 1
  201   192   175 1
  202   193   175 1
  203   194   175 1
  204   195   160 1
  205   196   160 1
  206   197   158 1
  207   198   158 1
  208   199   158 1
  209   200   157 1
  210   201   157 1
  211   202   157 1
  212   203   156 1
  213   204   156 1
  214   205   156 1
  215   206   155 1
  216   207   155 1
  217   208   155 1
  218   209   154 1
  219   210   154 1
  220   211   154 1
  221   212   141 1
  222   213   146 1
  223   214   145 1
  224   215   142 1
  225   216   142 1
  226   217   174 1
  227   218   173 1
  228   219   171 1
  229   220   170 1
  230   221   169 1
  231   222   140 1
  232   223   167 1
  233   224   166 1
  234   225   165 1
  235   226   163 1
  236   227   161 1
  237   228   139 1
  238   229   139 1
  239   230   153 1
  240   231   152 1
  241   232   150 1
  242   233   149 1
  243   234   148 1
  244   235   162 1
  245   65    153 1
  246   65    174 1
@<TRIPOS>SUBSTRUCTURE
      1 CLA               1 ****               0 ****  **** 
      2 LUT             138 ****               0 ****  **** 
