@<TRIPOS>MOLECULE
Cpptraj generated mol2 file.
  235   246     2     0     0
SMALL
USER_CHARGES


@<TRIPOS>ATOM
      1 CAA        79.4106   58.9199   33.6092 a2         1 CLA     -0.055900
      2 CAB        79.1366   62.4866   42.4752 c8         1 CLA     -0.148500
      3 CAC        72.2031   58.1233   41.8482 a2         1 CLA     -0.012600
      4 CAD        75.1698   56.1772   34.3894 ck         1 CLA      0.398800
      5 NA         78.2298   58.9940   36.8291 ns         1 CLA     -0.225500
      6 CBA        80.6102   58.8896   32.6148 a2         1 CLA     -0.135000
      7 CBB        80.3242   62.6421   43.1654 c0         1 CLA     -0.395200
      8 CBC        72.1575   56.6097   41.4849 a3         1 CLA     -0.037700
      9 CBD        76.6188   56.7099   34.2050 a1         1 CLA     -0.053900
     10 NB         77.9934   60.6313   39.4181 nm         1 CLA     -0.295700
     11 OBD        74.6171   55.4392   33.6308 o2         1 CLA     -0.494600
     12 CGA        81.1490   57.5293   32.1157 c4         1 CLA      0.827000
     13 CGD        77.5278   55.5720   33.9583 c4         1 CLA      0.655300
     14 ND         75.4087   58.1399   37.3073 nm         1 CLA     -0.291600
     15 CED        78.3341   53.3408   34.6309 a3         1 CLA      0.005400
     16 CHA        76.9468   57.5684   35.4025 cs         1 CLA     -0.123800
     17 CHB        80.0096   60.2973   37.9353 aa         1 CLA     -0.291900
     18 CHC        76.6637   60.7250   41.5496 aa         1 CLA     -0.090400
     19 CHD        73.4669   58.2173   38.8312 aa         1 CLA     -0.052000
     20 CMA        81.5752   58.0048   36.4532 a3         1 CLA     -0.230700
     21 CMB        81.2480   62.5431   39.9203 a3         1 CLA     -0.180800
     22 CMC        74.3344   60.0766   43.5543 a3         1 CLA     -0.134000
     23 CMD        72.1978   56.3521   36.6031 a3         1 CLA     -0.141100
     24 C1         81.9280   55.3559   32.9172 a2         1 CLA      0.023000
     25 C1A        78.1594   58.2228   35.7312 ac         1 CLA     -0.015100
     26 C1B        79.3118   60.8218   39.1125 cr         1 CLA      0.054700
     27 C1C        75.4604   60.0410   41.1891 cn         1 CLA     -0.005600
     28 C1D        74.0596   57.8331   37.5994 ap         1 CLA     -0.047300
     29 O1A        81.2208   57.1438   30.9427 o2         1 CLA     -0.610800
     30 O1D        78.3724   55.6086   33.0549 o2         1 CLA     -0.558200
     31 C2         82.7852   54.8389   34.0415 c8         1 CLA     -0.325100
     32 C2A        79.4622   58.1881   34.9530 a1         1 CLA      0.098600
     33 C2B        79.9043   61.7101   40.0546 cb         1 CLA      0.088500
     34 C2C        74.3655   59.7293   42.0983 cb         1 CLA      0.053700
     35 C2D        73.5556   57.0179   36.5870 cb         1 CLA      0.058900
     36 O2A        81.5301   56.7294   33.1900 o1         1 CLA     -0.437200
     37 O2D        77.4244   54.4838   34.8073 o1         1 CLA     -0.357600
     38 C3         83.3884   53.6729   34.1895 c5         1 CLA      0.031200
     39 C3A        80.3526   58.8602   35.9297 a1         1 CLA      0.166800
     40 C3B        78.9620   61.8325   41.1425 cb         1 CLA      0.035000
     41 C3C        73.4841   58.8526   41.4095 cb         1 CLA     -0.089900
     42 C3D        74.6962   56.7865   35.6961 cb         1 CLA     -0.035900
     43 C4         82.5989   52.5362   34.7496 a3         1 CLA     -0.053300
     44 C4A        79.4694   59.4155   36.9718 ac         1 CLA      0.001800
     45 C4B        77.7750   61.0960   40.7092 cn         1 CLA     -0.020900
     46 C4C        74.0025   58.9875   39.9737 cr         1 CLA     -0.044400
     47 C4D        75.7630   57.5898   36.1814 c6         1 CLA     -0.046000
     48 C5         84.8467   53.4857   33.8993 a2         1 CLA     -0.070400
     49 C6         85.8492   54.6584   34.2340 a2         1 CLA      0.043900
     50 C7         86.0918   54.6893   35.7468 a2         1 CLA     -0.150000
     51 C8         86.3575   56.1116   36.3121 a1         1 CLA      0.064200
     52 C9         87.4644   56.9012   35.5728 a3         1 CLA     -0.259300
     53 C10        86.5429   56.0483   37.9107 a2         1 CLA     -0.071900
     54 C11        86.4203   57.4234   38.6331 a2         1 CLA      0.014500
     55 C12        86.5660   57.1616   40.1851 a2         1 CLA     -0.112100
     56 C13        86.3690   58.4875   41.0349 a1         1 CLA      0.089200
     57 C14        87.2716   59.7119   40.6347 a3         1 CLA     -0.239100
     58 C15        86.2198   58.2143   42.5730 a2         1 CLA     -0.102200
     59 C16        85.5295   59.3771   43.3658 a2         1 CLA      0.023900
     60 C17        85.2372   58.9076   44.8082 a2         1 CLA     -0.105700
     61 C18        84.8971   59.9965   45.8254 a1         1 CLA      0.206800
     62 C19        83.4368   60.5483   45.4888 a3         1 CLA     -0.280100
     63 C20        84.9781   59.3291   47.2142 a3         1 CLA     -0.280100
     64 NC         75.1978   59.6156   39.9101 nx         1 CLA     -0.309200
     65 MG         76.6263   59.5798   38.2584 mg         1 CLA      0.895000
     66 HMD3       72.0194   55.8565   35.6651 dc         1 CLA      0.064300
     67 HMD2       72.1092   55.7409   37.5104 dc         1 CLA      0.064300
     68 HMD1       71.3820   57.0350   36.6861 dc         1 CLA      0.064300
     69 HMC3       74.9855   59.3784   44.0504 dc         1 CLA      0.052100
     70 HMC2       74.5152   61.1366   43.6474 dc         1 CLA      0.052100
     71 HMC1       73.2822   59.9187   43.9424 dc         1 CLA      0.052100
     72 HMB3       81.1805   63.4278   40.5393 dc         1 CLA      0.063600
     73 HMB2       82.0772   61.9830   40.2779 dc         1 CLA      0.063600
     74 HMB1       81.3122   62.9200   38.9198 dc         1 CLA      0.063600
     75 HMA3       81.3935   56.9551   36.7394 dc         1 CLA      0.058300
     76 HMA2       82.2836   58.0072   35.5915 dc         1 CLA      0.058300
     77 HMA1       82.1131   58.4569   37.2867 dc         1 CLA      0.058300
     78 HED3       79.3806   53.6950   34.6556 dc         1 CLA      0.079300
     79 HED2       78.3514   52.6867   35.4892 dc         1 CLA      0.079300
     80 HED1       77.9407   52.6616   33.8709 dc         1 CLA      0.079300
     81 HBC3       73.1504   56.1509   41.8026 dc         1 CLA      0.016300
     82 HBC2       71.4124   56.1922   42.1484 dc         1 CLA      0.016300
     83 HBC1       71.9028   56.4178   40.4202 dc         1 CLA      0.016300
     84 HBB2       80.5055   62.9328   44.2061 da         1 CLA      0.183000
     85 HBB1       81.2571   62.3503   42.6247 da         1 CLA      0.183000
     86 HBA2       80.2413   59.3050   31.6702 dc         1 CLA      0.029400
     87 HBA1       81.4630   59.4725   33.0738 dc         1 CLA      0.029400
     88 HAC2       72.1299   58.1163   42.9271 dc         1 CLA      0.029300
     89 HAC1       71.3156   58.6178   41.4265 dc         1 CLA      0.029300
     90 HAA2       78.6255   58.5546   32.8972 dc         1 CLA      0.028700
     91 HAA1       79.0035   59.9350   33.7206 dc         1 CLA      0.028700
     92 H203       84.3149   59.8807   47.9095 dc         1 CLA      0.065600
     93 H202       84.5528   58.2854   47.2676 dc         1 CLA      0.065600
     94 H201       85.9587   59.4075   47.7463 dc         1 CLA      0.065600
     95 H193       82.7755   59.6799   45.6202 dc         1 CLA      0.065600
     96 H192       83.2649   61.4518   46.1112 dc         1 CLA      0.065600
     97 H191       83.2622   60.9112   44.4714 dc         1 CLA      0.065600
     98 H172       84.5205   58.1756   44.7337 dc         1 CLA      0.027600
     99 H171       86.1196   58.4579   45.1524 dc         1 CLA      0.027600
    100 H162       86.3888   60.0988   43.3658 dc         1 CLA      0.002900
    101 H161       84.5395   59.5464   42.7979 dc         1 CLA      0.002900
    102 H152       85.5849   57.3717   42.7356 dc         1 CLA      0.029100
    103 H151       87.1918   58.0721   42.8291 dc         1 CLA      0.029100
    104 H143       87.2343   60.0553   39.5178 dc         1 CLA      0.063600
    105 H142       86.9523   60.5890   41.2280 dc         1 CLA      0.063600
    106 H141       88.3126   59.4428   40.8072 dc         1 CLA      0.063600
    107 H122       85.8621   56.4282   40.5191 dc         1 CLA      0.032500
    108 H121       87.5944   56.8063   40.3332 dc         1 CLA      0.032500
    109 H112       87.1828   58.1624   38.3442 dc         1 CLA      0.006600
    110 H111       85.4866   57.9146   38.4735 dc         1 CLA      0.006600
    111 H102       85.7837   55.3900   38.2407 dc         1 CLA      0.024100
    112 H101       87.5821   55.8173   38.1285 dc         1 CLA      0.024100
    113 HHD        72.4719   57.7670   39.0173 da         1 CLA      0.174300
    114 HHC        76.7952   61.1326   42.5124 da         1 CLA      0.136800
    115 HHB        81.0290   60.5976   37.6759 da         1 CLA      0.138300
    116 HBD        76.6764   57.2834   33.3386 dc         1 CLA      0.107700
    117 HAB        78.2350   62.7562   43.0264 da         1 CLA      0.155200
    118 H93        87.1554   57.2600   34.5984 dc         1 CLA      0.069500
    119 H92        87.8180   57.7800   36.1459 dc         1 CLA      0.069500
    120 H91        88.3979   56.3750   35.5041 dc         1 CLA      0.069500
    121 H8         85.4371   56.6217   36.1974 dc         1 CLA      0.029300
    122 H72        85.1426   54.4384   36.2183 dc         1 CLA      0.044400
    123 H71        86.8471   53.9123   36.0290 dc         1 CLA      0.044400
    124 H62        86.8414   54.3840   33.7417 dc         1 CLA      0.015600
    125 H61        85.3940   55.5237   33.8348 dc         1 CLA      0.015600
    126 H52        85.2565   52.5779   34.3533 dc         1 CLA      0.033200
    127 H51        84.7309   53.2630   32.8202 dc         1 CLA      0.033200
    128 H43        81.7431   52.7444   35.3255 dc         1 CLA      0.037000
    129 H42        82.0742   52.1731   33.8172 dc         1 CLA      0.037000
    130 H41        83.2086   51.7686   35.2763 dc         1 CLA      0.037000
    131 H3A        80.6010   59.8176   35.4837 dc         1 CLA      0.041100
    132 H2A        79.6807   57.1059   34.8534 dc         1 CLA      0.083100
    133 H2         83.0416   55.6275   34.8083 da         1 CLA      0.180900
    134 H18        85.6220   60.7749   45.7901 dc         1 CLA     -0.003900
    135 H13        85.3509   58.6825   40.8246 dc         1 CLA      0.019700
    136 H12        81.0529   54.7094   32.7391 dc         1 CLA      0.120400
    137 H11        82.5865   55.2844   32.0366 dc         1 CLA      0.120400
    138 C1         68.9253   61.7182   49.4421 Z1         2 LUT      0.509236
    139 C2         67.4393   61.5458   49.9379 Z2         2 LUT     -0.434695
    140 C3         66.6628   62.7848   50.4606 Z3         2 LUT      0.437453
    141 O3         66.7888   62.9863   51.8968 S1         2 LUT     -0.547129
    142 C4         67.0439   64.0398   49.7040 Z4         2 LUT     -0.468603
    143 C5         67.7518   63.6971   48.3978 Z5         2 LUT      0.279246
    144 C6         68.7205   62.7348   48.2976 Z6         2 LUT     -0.305473
    145 C7         69.1572   62.2752   46.9578 Z7         2 LUT      0.069402
    146 C8         70.2513   62.6546   46.3286 Z8         2 LUT     -0.191631
    147 C9         70.5305   62.4285   44.8902 Z9         2 LUT      0.196698
    148 C10        71.6024   63.1111   44.4219 Y1         2 LUT     -0.208611
    149 C11        72.1489   62.9535   43.1212 Y2         2 LUT      0.030784
    150 C12        73.2973   63.6766   42.7520 Y3         2 LUT     -0.220316
    151 C13        74.0939   63.5380   41.5149 Y4         2 LUT      0.215937
    152 C14        75.2035   64.3741   41.4803 Y5         2 LUT     -0.185793
    153 C15        76.2726   64.4236   40.4924 Y6         2 LUT     -0.057835
    154 C16        69.4726   60.3052   48.9403 Y7         2 LUT     -0.405615
    155 C17        69.7690   62.2658   50.6457 Y7         2 LUT     -0.405615
    156 C18        67.1564   64.4541   47.1392 Y9         2 LUT     -0.369639
    157 C19        69.8757   61.3102   44.1093 W1         2 LUT     -0.333362
    158 C20        73.5700   62.9108   40.1554 W2         2 LUT     -0.323439
    159 C21        88.1425   65.5304   34.9829 Z1         2 LUT      0.406104
    160 C22        88.7767   64.9457   33.6677 Z2         2 LUT     -0.404965
    161 C23        88.9430   65.9531   32.4867 Z3         2 LUT      0.391255
    162 O23        89.7336   65.3455   31.4169 S1         2 LUT     -0.528210
    163 C24        87.5482   66.5565   32.3028 W6         2 LUT     -0.258361
    164 C25        86.6038   66.5889   33.2271 Z5         2 LUT      0.133546
    165 C26        86.7089   65.9689   34.6543 W8         2 LUT     -0.147008
    166 C27        85.9292   66.8368   35.6973 Z7         2 LUT      0.023843
    167 C28        84.6686   66.5191   36.0683 Z8         2 LUT     -0.216987
    168 C29        83.9725   66.9079   37.2709 Z9         2 LUT      0.206524
    169 C30        82.7318   66.3004   37.5158 Y1         2 LUT     -0.215556
    170 C31        81.9026   66.4410   38.7733 Y2         2 LUT      0.025142
    171 C32        80.6530   65.9175   38.8724 Y3         2 LUT     -0.212209
    172 C33        79.6361   66.0022   39.9444 Y4         2 LUT      0.240937
    173 C34        78.4615   65.2543   39.7113 Y5         2 LUT     -0.218862
    174 C35        77.4026   65.2339   40.6812 Y6         2 LUT     -0.023547
    175 C36        88.9307   66.7182   35.5303 Y7         2 LUT     -0.393485
    176 C37        88.2145   64.4072   36.0263 Y7         2 LUT     -0.393485
    177 C38        85.3043   67.2894   32.9724 Y9         2 LUT     -0.387526
    178 C39        84.6794   67.8945   38.2113 W1         2 LUT     -0.322618
    179 C40        80.2647   66.3042   41.3172 W2         2 LUT     -0.358472
    180 H403       79.8310   65.6428   42.1071 R7         2 LUT      0.097720
    181 H402       81.2973   66.0840   41.3301 R7         2 LUT      0.097720
    182 H401       80.0391   67.3124   41.6208 R7         2 LUT      0.097720
    183 H393       85.3190   68.6457   37.6907 R4         2 LUT      0.082505
    184 H392       84.0978   68.3504   39.0276 R4         2 LUT      0.082505
    185 H391       85.3606   67.2500   38.7158 R4         2 LUT      0.082505
    186 H383       84.5159   66.5597   33.0767 R1         2 LUT      0.104030
    187 H382       85.0072   68.0783   33.6529 R1         2 LUT      0.104030
    188 H381       85.1727   67.7827   31.9537 R1         2 LUT      0.104030
    189 H373       87.6371   63.5087   35.7759 T4         2 LUT      0.089537
    190 H372       89.2590   64.0710   36.1645 T4         2 LUT      0.089537
    191 H371       87.7109   64.7095   36.9545 T4         2 LUT      0.089537
    192 H363       88.7427   67.6186   34.9017 T4         2 LUT      0.089537
    193 H362       88.8195   66.9483   36.6291 T4         2 LUT      0.089537
    194 H361       90.0365   66.5684   35.4898 T4         2 LUT      0.089537
    195 H222       89.7969   64.7491   33.8745 U2         2 LUT      0.127376
    196 H221       88.1359   64.0756   33.4094 U2         2 LUT      0.127376
    197 H203       72.8139   63.4447   39.6552 R7         2 LUT      0.087068
    198 H202       74.3822   62.7251   39.5122 R7         2 LUT      0.087068
    199 H201       73.0655   62.0486   40.3953 R7         2 LUT      0.087068
    200 H193       69.4614   60.5522   44.7554 R4         2 LUT      0.089716
    201 H192       69.0906   61.5957   43.4219 R4         2 LUT      0.089716
    202 H191       70.5518   60.6891   43.5970 R4         2 LUT      0.089716
    203 H183       67.8284   65.2771   46.8054 R1         2 LUT      0.094572
    204 H182       67.1898   63.8159   46.3364 R1         2 LUT      0.094572
    205 H181       66.1942   64.9486   47.2833 R1         2 LUT      0.094572
    206 H173       70.8419   62.0220   50.5834 T4         2 LUT      0.093752
    207 H172       69.6020   63.3807   50.8793 T4         2 LUT      0.093752
    208 H171       69.5113   61.7729   51.5305 T4         2 LUT      0.093752
    209 H163       68.6870   59.5532   48.7218 T4         2 LUT      0.093752
    210 H162       70.0650   60.3554   48.0077 T4         2 LUT      0.093752
    211 H161       70.2166   59.8573   49.6715 T4         2 LUT      0.093752
    212 HO3        66.5189   62.1844   52.3499 Q1         2 LUT      0.300121
    213 H8         70.9086   63.3622   46.9023 U7         2 LUT      0.080784
    214 H7         68.3331   61.8945   46.4181 U6         2 LUT      0.042190
    215 H42        66.1634   64.6597   49.4774 U5         2 LUT      0.145166
    216 H41        67.5985   64.7024   50.3683 U5         2 LUT      0.145166
    217 H35        77.5218   65.9211   41.5506 T3         2 LUT      0.077919
    218 H34        78.1964   64.7690   38.7771 T2         2 LUT      0.073626
    219 H32        80.3631   65.2948   37.9992 T1         2 LUT      0.092510
    220 H31        82.2306   67.0513   39.5812 U9         2 LUT      0.070048
    221 H30        82.2922   65.6604   36.7429 U8         2 LUT      0.085442
    222 H3         65.6069   62.5561   50.3516 U3         2 LUT     -0.031596
    223 H28        83.9868   66.0352   35.3635 U7         2 LUT      0.084728
    224 H27        86.4858   67.4084   36.3984 U6         2 LUT      0.087291
    225 H26        86.0576   65.0418   34.6361 Q6         2 LUT      0.075325
    226 H24        87.4269   67.0634   31.3395 Q5         2 LUT      0.094482
    227 H23        89.6804   66.6999   32.7597 U3         2 LUT     -0.024869
    228 H22        66.8352   61.2380   49.0321 U2         2 LUT      0.127376
    229 H21        67.2089   60.7332   50.6491 U2         2 LUT      0.127376
    230 H15        76.2222   63.8349   39.6415 T3         2 LUT      0.093200
    231 H14        75.4055   64.8976   42.4037 T2         2 LUT      0.068865
    232 H12        73.6668   64.3819   43.5227 T1         2 LUT      0.095507
    233 H11        71.7299   62.2176   42.4753 U9         2 LUT      0.068930
    234 H10        72.1112   63.8099   45.1189 U8         2 LUT      0.083911
    235 H1         89.1835   65.0918   30.6490 Q1         2 LUT      0.297311
@<TRIPOS>BOND
    1     6     1 1
    2     7     2 1
    3     8     3 1
    4     9     4 1
    5    11     4 1
    6    12     6 1
    7    13     9 1
    8    16     9 1
    9    25     5 1
   10    25    16 1
   11    26    10 1
   12    26    17 1
   13    27    18 1
   14    28    14 1
   15    28    19 1
   16    29    12 1
   17    30    13 1
   18    31    24 1
   19    32     1 1
   20    32    25 1
   21    33    21 1
   22    33    26 1
   23    34    22 1
   24    34    27 1
   25    35    23 1
   26    35    28 1
   27    36    12 1
   28    36    24 1
   29    37    13 1
   30    37    15 1
   31    38    31 1
   32    39    20 1
   33    39    32 1
   34    40     2 1
   35    40    33 1
   36    41     3 1
   37    41    34 1
   38    42     4 1
   39    42    35 1
   40    43    38 1
   41    44     5 1
   42    44    17 1
   43    44    39 1
   44    45    10 1
   45    45    18 1
   46    45    40 1
   47    46    19 1
   48    46    41 1
   49    47    14 1
   50    47    16 1
   51    47    42 1
   52    48    38 1
   53    49    48 1
   54    50    49 1
   55    51    50 1
   56    52    51 1
   57    53    51 1
   58    54    53 1
   59    55    54 1
   60    56    55 1
   61    57    56 1
   62    58    56 1
   63    59    58 1
   64    60    59 1
   65    61    60 1
   66    62    61 1
   67    63    61 1
   68    64    27 1
   69    64    46 1
   70    65     5 1
   71    65    10 1
   72    65    64 1
   73    65    14 1
   74    66    23 1
   75    67    23 1
   76    68    23 1
   77    69    22 1
   78    70    22 1
   79    71    22 1
   80    72    21 1
   81    73    21 1
   82    74    21 1
   83    75    20 1
   84    76    20 1
   85    77    20 1
   86    78    15 1
   87    79    15 1
   88    80    15 1
   89    81     8 1
   90    82     8 1
   91    83     8 1
   92    84     7 1
   93    85     7 1
   94    86     6 1
   95    87     6 1
   96    88     3 1
   97    89     3 1
   98    90     1 1
   99    91     1 1
  100    92    63 1
  101    93    63 1
  102    94    63 1
  103    95    62 1
  104    96    62 1
  105    97    62 1
  106    98    60 1
  107    99    60 1
  108   100    59 1
  109   101    59 1
  110   102    58 1
  111   103    58 1
  112   104    57 1
  113   105    57 1
  114   106    57 1
  115   107    55 1
  116   108    55 1
  117   109    54 1
  118   110    54 1
  119   111    53 1
  120   112    53 1
  121   113    19 1
  122   114    18 1
  123   115    17 1
  124   116     9 1
  125   117     2 1
  126   118    52 1
  127   119    52 1
  128   120    52 1
  129   121    51 1
  130   122    50 1
  131   123    50 1
  132   124    49 1
  133   125    49 1
  134   126    48 1
  135   127    48 1
  136   128    43 1
  137   129    43 1
  138   130    43 1
  139   131    39 1
  140   132    32 1
  141   133    31 1
  142   134    61 1
  143   135    56 1
  144   136    24 1
  145   137    24 1
  146   139   138 1
  147   140   139 1
  148   141   140 1
  149   142   140 1
  150   143   142 1
  151   144   138 1
  152   144   143 1
  153   145   144 1
  154   146   145 1
  155   147   146 1
  156   148   147 1
  157   149   148 1
  158   150   149 1
  159   151   150 1
  160   152   151 1
  161   153   152 1
  162   154   138 1
  163   155   138 1
  164   156   143 1
  165   157   147 1
  166   158   151 1
  167   160   159 1
  168   161   160 1
  169   162   161 1
  170   163   161 1
  171   164   163 1
  172   165   159 1
  173   165   164 1
  174   166   165 1
  175   167   166 1
  176   168   167 1
  177   169   168 1
  178   170   169 1
  179   171   170 1
  180   172   171 1
  181   173   172 1
  182   174   153 1
  183   174   173 1
  184   175   159 1
  185   176   159 1
  186   177   164 1
  187   178   168 1
  188   179   172 1
  189   180   179 1
  190   181   179 1
  191   182   179 1
  192   183   178 1
  193   184   178 1
  194   185   178 1
  195   186   177 1
  196   187   177 1
  197   188   177 1
  198   189   176 1
  199   190   176 1
  200   191   176 1
  201   192   175 1
  202   193   175 1
  203   194   175 1
  204   195   160 1
  205   196   160 1
  206   197   158 1
  207   198   158 1
  208   199   158 1
  209   200   157 1
  210   201   157 1
  211   202   157 1
  212   203   156 1
  213   204   156 1
  214   205   156 1
  215   206   155 1
  216   207   155 1
  217   208   155 1
  218   209   154 1
  219   210   154 1
  220   211   154 1
  221   212   141 1
  222   213   146 1
  223   214   145 1
  224   215   142 1
  225   216   142 1
  226   217   174 1
  227   218   173 1
  228   219   171 1
  229   220   170 1
  230   221   169 1
  231   222   140 1
  232   223   167 1
  233   224   166 1
  234   225   165 1
  235   226   163 1
  236   227   161 1
  237   228   139 1
  238   229   139 1
  239   230   153 1
  240   231   152 1
  241   232   150 1
  242   233   149 1
  243   234   148 1
  244   235   162 1
  245   65    153 1
  246   65    174 1
@<TRIPOS>SUBSTRUCTURE
      1 CLA               1 ****               0 ****  **** 
      2 LUT             138 ****               0 ****  **** 
