@<TRIPOS>MOLECULE
Cpptraj generated mol2 file.
  235   246     2     0     0
SMALL
USER_CHARGES


@<TRIPOS>ATOM
      1 CAA        79.2520   58.3924   34.5014 a2         1 CLA     -0.055900
      2 CAB        80.0981   62.3361   43.1443 c8         1 CLA     -0.148500
      3 CAC        72.8755   58.4433   43.1837 a2         1 CLA     -0.012600
      4 CAD        75.2367   55.6359   35.9344 ck         1 CLA      0.398800
      5 NA         78.5180   58.7050   37.8242 ns         1 CLA     -0.225500
      6 CBA        80.4929   58.3378   33.5511 a2         1 CLA     -0.135000
      7 CBB        79.7327   62.0582   44.4401 c0         1 CLA     -0.395200
      8 CBC        73.0758   56.8957   43.6709 a3         1 CLA     -0.037700
      9 CBD        76.7263   56.1167   35.6324 a1         1 CLA     -0.053900
     10 NB         78.6483   60.2347   40.3854 nm         1 CLA     -0.295700
     11 OBD        74.4952   54.8442   35.3403 o2         1 CLA     -0.494600
     12 CGA        81.0269   56.9882   33.0147 c4         1 CLA      0.827000
     13 CGD        77.6222   54.9370   35.4977 c4         1 CLA      0.655300
     14 ND         75.6925   57.8547   38.5716 nm         1 CLA     -0.291600
     15 CED        78.1144   52.7440   36.3007 a3         1 CLA      0.005400
     16 CHA        77.1911   57.0795   36.7218 cs         1 CLA     -0.123800
     17 CHB        80.4542   59.9524   38.7011 aa         1 CLA     -0.291900
     18 CHC        77.2443   60.9030   42.3516 aa         1 CLA     -0.090400
     19 CHD        73.9157   57.8767   40.2322 aa         1 CLA     -0.052000
     20 CMA        81.7563   57.5704   37.2529 a3         1 CLA     -0.230700
     21 CMB        81.9349   61.8099   40.5858 a3         1 CLA     -0.180800
     22 CMC        75.2582   60.2523   44.5497 a3         1 CLA     -0.134000
     23 CMD        72.5377   55.8982   38.1304 a3         1 CLA     -0.141100
     24 C1         82.0365   55.0024   33.9199 a2         1 CLA      0.023000
     25 C1A        78.3198   57.8005   36.8455 ac         1 CLA     -0.015100
     26 C1B        79.9404   60.4101   39.9412 cr         1 CLA      0.054700
     27 C1C        76.0863   60.1188   42.0806 cn         1 CLA     -0.005600
     28 C1D        74.4661   57.3479   39.0972 ap         1 CLA     -0.047300
     29 O1A        80.6461   56.3952   31.9794 o2         1 CLA     -0.610800
     30 O1D        78.4163   54.7374   34.6074 o2         1 CLA     -0.558200
     31 C2         82.7592   54.6042   35.2021 c8         1 CLA     -0.325100
     32 C2A        79.5046   57.6579   35.8628 a1         1 CLA      0.098600
     33 C2B        80.6300   61.2777   40.9018 cb         1 CLA      0.088500
     34 C2C        75.1208   59.8044   43.1042 cb         1 CLA      0.053700
     35 C2D        73.8699   56.4832   38.1005 cb         1 CLA      0.058900
     36 O2A        81.6938   56.3652   34.0405 o1         1 CLA     -0.437200
     37 O2D        77.4715   54.0835   36.5892 o1         1 CLA     -0.357600
     38 C3         83.9232   53.8871   35.1039 c5         1 CLA      0.031200
     39 C3A        80.6239   58.4552   36.6736 a1         1 CLA      0.166800
     40 C3B        79.7901   61.5258   41.9705 cb         1 CLA      0.035000
     41 C3C        74.1001   59.0135   42.5000 cb         1 CLA     -0.089900
     42 C3D        74.9285   56.3529   37.1501 cb         1 CLA     -0.035900
     43 C4         83.9317   52.4297   35.4104 a3         1 CLA     -0.053300
     44 C4A        79.8335   59.0995   37.7560 ac         1 CLA      0.001800
     45 C4B        78.4735   60.8760   41.6008 cn         1 CLA     -0.020900
     46 C4C        74.5331   58.7489   41.1512 cr         1 CLA     -0.044400
     47 C4D        76.0223   57.1659   37.5289 c6         1 CLA     -0.046000
     48 C5         85.3445   54.4139   34.9206 a2         1 CLA     -0.070400
     49 C6         85.6127   55.7499   35.6502 a2         1 CLA      0.043900
     50 C7         86.0760   55.5117   37.0829 a2         1 CLA     -0.150000
     51 C8         86.1342   56.8850   37.9030 a1         1 CLA      0.064200
     52 C9         87.0876   57.8866   37.2804 a3         1 CLA     -0.259300
     53 C10        86.6598   56.5569   39.3439 a2         1 CLA     -0.071900
     54 C11        86.1936   57.5374   40.3754 a2         1 CLA      0.014500
     55 C12        86.4812   56.9425   41.7704 a2         1 CLA     -0.112100
     56 C13        86.6253   57.9640   42.9226 a1         1 CLA      0.089200
     57 C14        87.9883   58.6439   42.9313 a3         1 CLA     -0.239100
     58 C15        86.2734   57.2363   44.2592 a2         1 CLA     -0.102200
     59 C16        86.2499   58.1399   45.5923 a2         1 CLA      0.023900
     60 C17        85.5674   57.4243   46.8266 a2         1 CLA     -0.105700
     61 C18        85.8322   58.0959   48.2526 a1         1 CLA      0.206800
     62 C19        84.9173   57.5160   49.2902 a3         1 CLA     -0.280100
     63 C20        87.2929   58.0470   48.5514 a3         1 CLA     -0.280100
     64 NC         75.7864   59.3672   40.9555 nx         1 CLA     -0.309200
     65 MG         77.0657   59.2783   39.3675 mg         1 CLA      0.895000
     66 HMD3       71.7537   56.6749   37.8050 dc         1 CLA      0.064300
     67 HMD2       72.4776   54.9991   37.4308 dc         1 CLA      0.064300
     68 HMD1       72.3841   55.5464   39.1534 dc         1 CLA      0.064300
     69 HMC3       76.0552   59.7190   45.0431 dc         1 CLA      0.052100
     70 HMC2       75.4756   61.3492   44.6314 dc         1 CLA      0.052100
     71 HMC1       74.2718   60.0813   45.0453 dc         1 CLA      0.052100
     72 HMB3       82.6414   61.0215   40.4453 dc         1 CLA      0.063600
     73 HMB2       81.9072   62.2927   39.5955 dc         1 CLA      0.063600
     74 HMB1       82.3742   62.5109   41.3051 dc         1 CLA      0.063600
     75 HMA3       81.3744   56.8527   37.9705 dc         1 CLA      0.058300
     76 HMA2       82.2900   57.0847   36.4682 dc         1 CLA      0.058300
     77 HMA1       82.3458   58.1925   37.9022 dc         1 CLA      0.058300
     78 HED3       77.6856   52.4384   35.3391 dc         1 CLA      0.079300
     79 HED2       79.2143   52.7004   36.2517 dc         1 CLA      0.079300
     80 HED1       77.9892   52.1003   37.1214 dc         1 CLA      0.079300
     81 HBC3       72.5208   56.6444   44.5407 dc         1 CLA      0.016300
     82 HBC2       72.9633   56.3106   42.8523 dc         1 CLA      0.016300
     83 HBC1       74.1350   56.8807   43.9156 dc         1 CLA      0.016300
     84 HBB2       80.2273   62.6495   45.2389 da         1 CLA      0.183000
     85 HBB1       78.9876   61.2732   44.7716 da         1 CLA      0.183000
     86 HBA2       80.3261   58.9835   32.7531 dc         1 CLA      0.029400
     87 HBA1       81.3380   58.8658   34.0489 dc         1 CLA      0.029400
     88 HAC2       72.6909   58.9662   44.1307 dc         1 CLA      0.029300
     89 HAC1       72.0292   58.5946   42.5104 dc         1 CLA      0.029300
     90 HAA2       78.3975   57.9604   33.9699 dc         1 CLA      0.028700
     91 HAA1       78.8567   59.3882   34.7112 dc         1 CLA      0.028700
     92 H203       87.4436   58.3467   49.5647 dc         1 CLA      0.065600
     93 H202       87.5326   56.9924   48.6687 dc         1 CLA      0.065600
     94 H201       88.0479   58.4836   47.8475 dc         1 CLA      0.065600
     95 H193       83.8765   57.7622   49.0358 dc         1 CLA      0.065600
     96 H192       84.9641   56.4600   49.3496 dc         1 CLA      0.065600
     97 H191       85.1359   57.9869   50.3242 dc         1 CLA      0.065600
     98 H172       84.5458   57.3663   46.5322 dc         1 CLA      0.027600
     99 H171       85.9421   56.4062   46.9433 dc         1 CLA      0.027600
    100 H162       87.2463   58.4444   45.9366 dc         1 CLA      0.002900
    101 H161       85.6951   59.0343   45.4473 dc         1 CLA      0.002900
    102 H152       85.2920   56.8300   44.2004 dc         1 CLA      0.029100
    103 H151       86.8799   56.3351   44.4143 dc         1 CLA      0.029100
    104 H143       87.8957   59.5599   43.4460 dc         1 CLA      0.063600
    105 H142       88.7712   58.0458   43.3799 dc         1 CLA      0.063600
    106 H141       88.3024   58.8666   41.9084 dc         1 CLA      0.063600
    107 H122       85.5786   56.3842   42.0112 dc         1 CLA      0.032500
    108 H121       87.3207   56.2982   41.7705 dc         1 CLA      0.032500
    109 H112       86.7455   58.4843   40.3291 dc         1 CLA      0.006600
    110 H111       85.1283   57.7501   40.3290 dc         1 CLA      0.006600
    111 H102       86.2223   55.5935   39.6070 dc         1 CLA      0.024100
    112 H101       87.7418   56.4458   39.3784 dc         1 CLA      0.024100
    113 HHD        72.9231   57.3714   40.3819 da         1 CLA      0.174300
    114 HHC        77.3018   61.4870   43.2840 da         1 CLA      0.136800
    115 HHB        81.5355   60.0866   38.4732 da         1 CLA      0.138300
    116 HBD        76.7300   56.6196   34.6576 dc         1 CLA      0.107700
    117 HAB        80.8080   63.1787   42.9238 da         1 CLA      0.155200
    118 H93        88.1398   57.6475   37.4524 dc         1 CLA      0.069500
    119 H92        87.0511   57.9631   36.2337 dc         1 CLA      0.069500
    120 H91        86.8441   58.8603   37.6999 dc         1 CLA      0.069500
    121 H8         85.1192   57.2236   38.0070 dc         1 CLA      0.029300
    122 H72        85.3085   54.8857   37.5315 dc         1 CLA      0.044400
    123 H71        87.0985   55.1220   37.1891 dc         1 CLA      0.044400
    124 H62        86.5234   56.1086   35.1371 dc         1 CLA      0.015600
    125 H61        84.7771   56.4426   35.6000 dc         1 CLA      0.015600
    126 H52        86.0803   53.6843   35.1458 dc         1 CLA      0.033200
    127 H51        85.3632   54.7352   33.8543 dc         1 CLA      0.033200
    128 H43        84.4647   52.2273   36.3155 dc         1 CLA      0.037000
    129 H42        82.8763   52.1505   35.5188 dc         1 CLA      0.037000
    130 H41        84.3358   51.8251   34.5600 dc         1 CLA      0.037000
    131 H3A        81.0200   59.2544   36.0749 dc         1 CLA      0.041100
    132 H2A        79.7345   56.5904   35.7183 dc         1 CLA      0.083100
    133 H2         82.4396   54.9269   36.1830 da         1 CLA      0.180900
    134 H18        85.6315   59.1364   48.2734 dc         1 CLA     -0.003900
    135 H13        85.9801   58.8402   42.8127 dc         1 CLA      0.019700
    136 H12        81.1544   54.3790   33.8570 dc         1 CLA      0.120400
    137 H11        82.7358   54.5441   33.1219 dc         1 CLA      0.120400
    138 C1         69.5069   61.4711   50.4979 Z1         2 LUT      0.509236
    139 C2         68.0749   61.4942   51.0210 Z2         2 LUT     -0.434695
    140 C3         67.4368   62.8211   51.4463 Z3         2 LUT      0.437453
    141 O3         67.7010   63.2361   52.7999 S1         2 LUT     -0.547129
    142 C4         67.8949   64.0269   50.5841 Z4         2 LUT     -0.468603
    143 C5         68.7291   63.6211   49.3817 Z5         2 LUT      0.279246
    144 C6         69.5173   62.5225   49.3895 Z6         2 LUT     -0.305473
    145 C7         69.8666   62.0592   48.0487 Z7         2 LUT      0.069402
    146 C8         70.6367   62.7210   47.1576 Z8         2 LUT     -0.191631
    147 C9         71.0277   62.2721   45.8022 Z9         2 LUT      0.196698
    148 C10        72.0269   62.9578   45.1403 Y1         2 LUT     -0.208611
    149 C11        72.6651   62.6824   43.8238 Y2         2 LUT      0.030784
    150 C12        73.7861   63.2838   43.3706 Y3         2 LUT     -0.220316
    151 C13        74.5546   63.1192   42.0959 Y4         2 LUT      0.215937
    152 C14        75.7437   63.8008   41.9799 Y5         2 LUT     -0.185793
    153 C15        76.7638   63.7014   40.9258 Y6         2 LUT     -0.057835
    154 C16        69.9418   60.0194   50.1711 Y7         2 LUT     -0.405615
    155 C17        70.4228   61.9254   51.6801 Y7         2 LUT     -0.405615
    156 C18        68.2804   64.4350   48.1263 Y9         2 LUT     -0.369639
    157 C19        70.4355   61.0330   45.1429 W1         2 LUT     -0.333362
    158 C20        73.8097   62.5060   40.8403 W2         2 LUT     -0.323439
    159 C21        88.2553   65.5442   34.8330 Z1         2 LUT      0.406104
    160 C22        88.9564   65.1756   33.4966 Z2         2 LUT     -0.404965
    161 C23        88.8704   66.3064   32.3502 Z3         2 LUT      0.391255
    162 O23        89.6138   65.7729   31.1760 S1         2 LUT     -0.528210
    163 C24        87.3955   66.7347   32.1629 W6         2 LUT     -0.258361
    164 C25        86.4302   66.5115   33.0644 Z5         2 LUT      0.133546
    165 C26        86.7031   65.9499   34.5323 W8         2 LUT     -0.147008
    166 C27        86.0003   66.7066   35.6475 Z7         2 LUT      0.023843
    167 C28        84.9445   66.2371   36.3240 Z8         2 LUT     -0.216987
    168 C29        84.2589   66.5288   37.5469 Z9         2 LUT      0.206524
    169 C30        83.1780   65.7242   37.7758 Y1         2 LUT     -0.215556
    170 C31        82.3640   65.6793   38.9533 Y2         2 LUT      0.025142
    171 C32        81.1907   65.0715   39.1550 Y3         2 LUT     -0.212209
    172 C33        80.2779   65.1009   40.2119 Y4         2 LUT      0.240937
    173 C34        79.0863   64.4585   40.0663 Y5         2 LUT     -0.218862
    174 C35        78.0341   64.2994   41.0655 Y6         2 LUT     -0.023547
    175 C36        89.1240   66.7770   35.3974 Y7         2 LUT     -0.393485
    176 C37        88.3668   64.4310   35.8340 Y7         2 LUT     -0.393485
    177 C38        85.0641   67.0895   32.8853 Y9         2 LUT     -0.387526
    178 C39        84.9263   67.4476   38.5139 W1         2 LUT     -0.322618
    179 C40        80.7527   65.8623   41.4606 W2         2 LUT     -0.358472
    180 H403       81.7735   65.6701   41.7449 R7         2 LUT      0.097720
    181 H402       80.8155   66.9271   41.3104 R7         2 LUT      0.097720
    182 H401       80.1122   65.6391   42.2422 R7         2 LUT      0.097720
    183 H393       85.6891   67.9800   37.9638 R4         2 LUT      0.082505
    184 H392       84.1935   68.0564   38.9931 R4         2 LUT      0.082505
    185 H391       85.3718   66.9110   39.3334 R4         2 LUT      0.082505
    186 H383       84.3087   66.8419   33.6824 R1         2 LUT      0.104030
    187 H382       85.0954   68.1653   32.8192 R1         2 LUT      0.104030
    188 H381       84.7114   66.6531   31.9683 R1         2 LUT      0.104030
    189 H373       89.3606   64.3436   36.0697 T4         2 LUT      0.089537
    190 H372       87.8094   64.6109   36.7595 T4         2 LUT      0.089537
    191 H371       88.1115   63.4270   35.4235 T4         2 LUT      0.089537
    192 H363       88.7389   67.1641   36.3236 T4         2 LUT      0.089537
    193 H362       90.2083   66.4618   35.3500 T4         2 LUT      0.089537
    194 H361       89.0030   67.6635   34.7719 T4         2 LUT      0.089537
    195 H222       90.0209   64.8861   33.5834 U2         2 LUT      0.127376
    196 H221       88.4983   64.3391   33.1018 U2         2 LUT      0.127376
    197 H203       73.1679   61.6345   41.1418 R7         2 LUT      0.087068
    198 H202       73.1949   63.2321   40.3658 R7         2 LUT      0.087068
    199 H201       74.5350   62.0887   40.1758 R7         2 LUT      0.087068
    200 H193       70.0939   61.2179   44.0995 R4         2 LUT      0.089716
    201 H192       71.0942   60.2293   45.0686 R4         2 LUT      0.089716
    202 H191       69.6700   60.4677   45.6763 R4         2 LUT      0.089716
    203 H183       67.8420   63.7312   47.3970 R1         2 LUT      0.094572
    204 H182       67.4826   65.2147   48.2406 R1         2 LUT      0.094572
    205 H181       69.1250   64.9903   47.7201 R1         2 LUT      0.094572
    206 H173       71.4951   61.6840   51.6097 T4         2 LUT      0.093752
    207 H172       70.2906   63.0624   51.8561 T4         2 LUT      0.093752
    208 H171       70.1449   61.5038   52.6670 T4         2 LUT      0.093752
    209 H163       70.2099   59.4451   51.0925 T4         2 LUT      0.093752
    210 H162       69.1444   59.4696   49.6580 T4         2 LUT      0.093752
    211 H161       70.7679   60.1544   49.4986 T4         2 LUT      0.093752
    212 HO3        67.3353   62.6630   53.4567 Q1         2 LUT      0.300121
    213 H8         71.0119   63.7070   47.5127 U7         2 LUT      0.080784
    214 H7         69.5443   61.0593   47.7553 U6         2 LUT      0.042190
    215 H42        66.9886   64.7436   50.3678 U5         2 LUT      0.145166
    216 H41        68.4784   64.6894   51.1983 U5         2 LUT      0.145166
    217 H35        78.1584   64.7088   42.0574 T3         2 LUT      0.077919
    218 H34        78.8081   64.0024   39.1077 T2         2 LUT      0.073626
    219 H32        80.9057   64.5587   38.2665 T1         2 LUT      0.092510
    220 H31        82.8680   66.1321   39.7974 U9         2 LUT      0.070048
    221 H30        82.8212   65.0801   36.9761 U8         2 LUT      0.085442
    222 H3         66.3645   62.6790   51.3220 U3         2 LUT     -0.031596
    223 H28        84.4934   65.4458   35.7139 U7         2 LUT      0.084728
    224 H27        86.4341   67.6240   36.0567 U6         2 LUT      0.087291
    225 H26        86.2861   64.9400   34.3577 Q6         2 LUT      0.075325
    226 H24        87.2175   67.0224   31.1249 Q5         2 LUT      0.094482
    227 H23        89.5304   67.0484   32.8199 U3         2 LUT     -0.024869
    228 H22        67.3182   61.0247   50.4054 U2         2 LUT      0.127376
    229 H21        68.1827   60.8408   51.9838 U2         2 LUT      0.127376
    230 H15        76.4847   63.3104   40.0162 T3         2 LUT      0.093200
    231 H14        75.9379   64.5736   42.7201 T2         2 LUT      0.068865
    232 H12        74.3411   63.9239   44.0534 T1         2 LUT      0.095507
    233 H11        72.3470   61.9303   43.1814 U9         2 LUT      0.068930
    234 H10        72.3893   63.8226   45.7377 U8         2 LUT      0.083911
    235 H1         89.0779   65.1273   30.6329 Q1         2 LUT      0.297311
@<TRIPOS>BOND
    1     6     1 1
    2     7     2 1
    3     8     3 1
    4     9     4 1
    5    11     4 1
    6    12     6 1
    7    13     9 1
    8    16     9 1
    9    25     5 1
   10    25    16 1
   11    26    10 1
   12    26    17 1
   13    27    18 1
   14    28    14 1
   15    28    19 1
   16    29    12 1
   17    30    13 1
   18    31    24 1
   19    32     1 1
   20    32    25 1
   21    33    21 1
   22    33    26 1
   23    34    22 1
   24    34    27 1
   25    35    23 1
   26    35    28 1
   27    36    12 1
   28    36    24 1
   29    37    13 1
   30    37    15 1
   31    38    31 1
   32    39    20 1
   33    39    32 1
   34    40     2 1
   35    40    33 1
   36    41     3 1
   37    41    34 1
   38    42     4 1
   39    42    35 1
   40    43    38 1
   41    44     5 1
   42    44    17 1
   43    44    39 1
   44    45    10 1
   45    45    18 1
   46    45    40 1
   47    46    19 1
   48    46    41 1
   49    47    14 1
   50    47    16 1
   51    47    42 1
   52    48    38 1
   53    49    48 1
   54    50    49 1
   55    51    50 1
   56    52    51 1
   57    53    51 1
   58    54    53 1
   59    55    54 1
   60    56    55 1
   61    57    56 1
   62    58    56 1
   63    59    58 1
   64    60    59 1
   65    61    60 1
   66    62    61 1
   67    63    61 1
   68    64    27 1
   69    64    46 1
   70    65     5 1
   71    65    10 1
   72    65    64 1
   73    65    14 1
   74    66    23 1
   75    67    23 1
   76    68    23 1
   77    69    22 1
   78    70    22 1
   79    71    22 1
   80    72    21 1
   81    73    21 1
   82    74    21 1
   83    75    20 1
   84    76    20 1
   85    77    20 1
   86    78    15 1
   87    79    15 1
   88    80    15 1
   89    81     8 1
   90    82     8 1
   91    83     8 1
   92    84     7 1
   93    85     7 1
   94    86     6 1
   95    87     6 1
   96    88     3 1
   97    89     3 1
   98    90     1 1
   99    91     1 1
  100    92    63 1
  101    93    63 1
  102    94    63 1
  103    95    62 1
  104    96    62 1
  105    97    62 1
  106    98    60 1
  107    99    60 1
  108   100    59 1
  109   101    59 1
  110   102    58 1
  111   103    58 1
  112   104    57 1
  113   105    57 1
  114   106    57 1
  115   107    55 1
  116   108    55 1
  117   109    54 1
  118   110    54 1
  119   111    53 1
  120   112    53 1
  121   113    19 1
  122   114    18 1
  123   115    17 1
  124   116     9 1
  125   117     2 1
  126   118    52 1
  127   119    52 1
  128   120    52 1
  129   121    51 1
  130   122    50 1
  131   123    50 1
  132   124    49 1
  133   125    49 1
  134   126    48 1
  135   127    48 1
  136   128    43 1
  137   129    43 1
  138   130    43 1
  139   131    39 1
  140   132    32 1
  141   133    31 1
  142   134    61 1
  143   135    56 1
  144   136    24 1
  145   137    24 1
  146   139   138 1
  147   140   139 1
  148   141   140 1
  149   142   140 1
  150   143   142 1
  151   144   138 1
  152   144   143 1
  153   145   144 1
  154   146   145 1
  155   147   146 1
  156   148   147 1
  157   149   148 1
  158   150   149 1
  159   151   150 1
  160   152   151 1
  161   153   152 1
  162   154   138 1
  163   155   138 1
  164   156   143 1
  165   157   147 1
  166   158   151 1
  167   160   159 1
  168   161   160 1
  169   162   161 1
  170   163   161 1
  171   164   163 1
  172   165   159 1
  173   165   164 1
  174   166   165 1
  175   167   166 1
  176   168   167 1
  177   169   168 1
  178   170   169 1
  179   171   170 1
  180   172   171 1
  181   173   172 1
  182   174   153 1
  183   174   173 1
  184   175   159 1
  185   176   159 1
  186   177   164 1
  187   178   168 1
  188   179   172 1
  189   180   179 1
  190   181   179 1
  191   182   179 1
  192   183   178 1
  193   184   178 1
  194   185   178 1
  195   186   177 1
  196   187   177 1
  197   188   177 1
  198   189   176 1
  199   190   176 1
  200   191   176 1
  201   192   175 1
  202   193   175 1
  203   194   175 1
  204   195   160 1
  205   196   160 1
  206   197   158 1
  207   198   158 1
  208   199   158 1
  209   200   157 1
  210   201   157 1
  211   202   157 1
  212   203   156 1
  213   204   156 1
  214   205   156 1
  215   206   155 1
  216   207   155 1
  217   208   155 1
  218   209   154 1
  219   210   154 1
  220   211   154 1
  221   212   141 1
  222   213   146 1
  223   214   145 1
  224   215   142 1
  225   216   142 1
  226   217   174 1
  227   218   173 1
  228   219   171 1
  229   220   170 1
  230   221   169 1
  231   222   140 1
  232   223   167 1
  233   224   166 1
  234   225   165 1
  235   226   163 1
  236   227   161 1
  237   228   139 1
  238   229   139 1
  239   230   153 1
  240   231   152 1
  241   232   150 1
  242   233   149 1
  243   234   148 1
  244   235   162 1
  245   65    153 1
  246   65    174 1
@<TRIPOS>SUBSTRUCTURE
      1 CLA               1 ****               0 ****  **** 
      2 LUT             138 ****               0 ****  **** 
