@<TRIPOS>MOLECULE
Cpptraj generated mol2 file.
  235   246     2     0     0
SMALL
USER_CHARGES


@<TRIPOS>ATOM
      1 CAA        78.0449   57.4762   33.7805 a2         1 CLA     -0.055900
      2 CAB        78.3533   61.5423   42.6672 c8         1 CLA     -0.148500
      3 CAC        71.3416   57.5390   42.3335 a2         1 CLA     -0.012600
      4 CAD        73.7258   55.3732   34.8702 ck         1 CLA      0.398800
      5 NA         77.0718   58.1856   37.0917 ns         1 CLA     -0.225500
      6 CBA        79.2457   57.0998   32.9014 a2         1 CLA     -0.135000
      7 CBB        79.5383   61.5009   43.2469 c0         1 CLA     -0.395200
      8 CBC        71.3209   56.0391   42.4449 a3         1 CLA     -0.037700
      9 CBD        75.2084   55.8318   34.6031 a1         1 CLA     -0.053900
     10 NB         77.0752   59.5861   39.7229 nm         1 CLA     -0.295700
     11 OBD        73.0618   54.7129   34.0794 o2         1 CLA     -0.494600
     12 CGA        79.4843   55.6838   32.6431 c4         1 CLA      0.827000
     13 CGD        76.0396   54.5481   34.4768 c4         1 CLA      0.655300
     14 ND         74.2773   57.4303   37.7168 nm         1 CLA     -0.291600
     15 CED        76.5170   52.4635   35.6647 a3         1 CLA      0.005400
     16 CHA        75.6194   56.7305   35.8102 cs         1 CLA     -0.123800
     17 CHB        78.9078   59.4513   38.0391 aa         1 CLA     -0.291900
     18 CHC        75.8912   59.9429   41.8626 aa         1 CLA     -0.090400
     19 CHD        72.5706   57.2186   39.4564 aa         1 CLA     -0.052000
     20 CMA        80.4995   57.2308   36.4580 a3         1 CLA     -0.230700
     21 CMB        80.4162   61.2237   40.0719 a3         1 CLA     -0.180800
     22 CMC        73.5229   59.5174   43.8381 a3         1 CLA     -0.134000
     23 CMD        71.0441   55.5697   37.0913 a3         1 CLA     -0.141100
     24 C1         80.0793   53.5496   33.5828 a2         1 CLA      0.023000
     25 C1A        76.8631   57.3212   36.0396 ac         1 CLA     -0.015100
     26 C1B        78.2830   59.9445   39.2026 cr         1 CLA      0.054700
     27 C1C        74.7131   59.1489   41.5817 cn         1 CLA     -0.005600
     28 C1D        72.9791   56.9883   38.1542 ap         1 CLA     -0.047300
     29 O1A        79.2828   55.1398   31.5538 o2         1 CLA     -0.610800
     30 O1D        76.7266   54.2022   33.5588 o2         1 CLA     -0.558200
     31 C2         80.9184   53.1452   34.7825 c8         1 CLA     -0.325100
     32 C2A        78.1553   57.1345   35.2778 a1         1 CLA      0.098600
     33 C2B        78.9852   60.7367   40.2403 cb         1 CLA      0.088500
     34 C2C        73.6152   58.8864   42.4974 cb         1 CLA      0.053700
     35 C2D        72.3759   56.2325   37.0988 cb         1 CLA      0.058900
     36 O2A        79.8784   55.0210   33.7351 o1         1 CLA     -0.437200
     37 O2D        75.8394   53.7619   35.5820 o1         1 CLA     -0.357600
     38 C3         81.8198   52.1521   35.0160 c5         1 CLA      0.031200
     39 C3A        79.1974   57.9760   36.0187 a1         1 CLA      0.166800
     40 C3B        78.1348   60.8467   41.3467 cb         1 CLA      0.035000
     41 C3C        72.6705   58.1508   41.7552 cb         1 CLA     -0.089900
     42 C3D        73.3925   56.0022   36.1748 cb         1 CLA     -0.035900
     43 C4         81.4163   50.8424   35.6727 a3         1 CLA     -0.053300
     44 C4A        78.3557   58.5336   37.1300 ac         1 CLA      0.001800
     45 C4B        76.9333   60.1558   40.9922 cn         1 CLA     -0.020900
     46 C4C        73.2257   57.9153   40.4636 cr         1 CLA     -0.044400
     47 C4D        74.5052   56.7737   36.6040 c6         1 CLA     -0.046000
     48 C5         83.2524   52.3263   34.6773 a2         1 CLA     -0.070400
     49 C6         84.0264   53.4091   35.3793 a2         1 CLA      0.043900
     50 C7         83.9842   53.3184   36.8562 a2         1 CLA     -0.150000
     51 C8         84.8948   54.3230   37.6556 a1         1 CLA      0.064200
     52 C9         86.4203   54.1393   37.4288 a3         1 CLA     -0.259300
     53 C10        84.5717   54.2897   39.2361 a2         1 CLA     -0.071900
     54 C11        83.1905   54.7757   39.6168 a2         1 CLA      0.014500
     55 C12        83.1040   55.4015   40.9500 a2         1 CLA     -0.112100
     56 C13        81.7272   56.0069   41.2793 a1         1 CLA      0.089200
     57 C14        81.2715   57.1507   40.3413 a3         1 CLA     -0.239100
     58 C15        81.6632   56.6037   42.6547 a2         1 CLA     -0.102200
     59 C16        82.4344   57.8659   43.1183 a2         1 CLA      0.023900
     60 C17        82.3222   58.0926   44.6646 a2         1 CLA     -0.105700
     61 C18        83.0238   59.3890   45.1787 a1         1 CLA      0.206800
     62 C19        82.7052   59.6820   46.6390 a3         1 CLA     -0.280100
     63 C20        84.5762   59.2664   45.0236 a3         1 CLA     -0.280100
     64 NC         74.4316   58.5551   40.3752 nx         1 CLA     -0.309200
     65 MG         75.6758   58.6107   38.6483 mg         1 CLA      0.895000
     66 HMD3       70.2840   56.3310   36.7744 dc         1 CLA      0.064300
     67 HMD2       71.0080   54.7049   36.4149 dc         1 CLA      0.064300
     68 HMD1       70.7972   55.1824   38.0973 dc         1 CLA      0.064300
     69 HMC3       73.4204   58.7116   44.6139 dc         1 CLA      0.052100
     70 HMC2       74.3940   60.0323   44.1132 dc         1 CLA      0.052100
     71 HMC1       72.7189   60.2183   43.9548 dc         1 CLA      0.052100
     72 HMB3       80.6437   62.1551   40.5747 dc         1 CLA      0.063600
     73 HMB2       81.0591   60.5153   40.6268 dc         1 CLA      0.063600
     74 HMB1       80.8119   61.2134   39.0685 dc         1 CLA      0.063600
     75 HMA3       81.2725   57.9990   36.7778 dc         1 CLA      0.058300
     76 HMA2       80.2406   56.6669   37.3635 dc         1 CLA      0.058300
     77 HMA1       80.9585   56.5705   35.7281 dc         1 CLA      0.058300
     78 HED3       75.9583   51.7618   36.2395 dc         1 CLA      0.079300
     79 HED2       76.4701   52.0937   34.6513 dc         1 CLA      0.079300
     80 HED1       77.5203   52.6310   35.9488 dc         1 CLA      0.079300
     81 HBC3       70.5764   55.6065   43.1201 dc         1 CLA      0.016300
     82 HBC2       71.2410   55.6205   41.4729 dc         1 CLA      0.016300
     83 HBC1       72.2867   55.7913   42.8096 dc         1 CLA      0.016300
     84 HBB2       79.7263   62.0559   44.2025 da         1 CLA      0.183000
     85 HBB1       80.3857   60.8433   42.8250 da         1 CLA      0.183000
     86 HBA2       79.1616   57.6724   31.9697 dc         1 CLA      0.029400
     87 HBA1       80.1578   57.4696   33.2556 dc         1 CLA      0.029400
     88 HAC2       71.2195   57.8095   43.4030 dc         1 CLA      0.029300
     89 HAC1       70.4730   57.9143   41.8170 dc         1 CLA      0.029300
     90 HAA2       77.1561   57.0305   33.3233 dc         1 CLA      0.028700
     91 HAA1       77.8614   58.5384   33.7313 dc         1 CLA      0.028700
     92 H203       85.0095   59.3178   44.0054 dc         1 CLA      0.065600
     93 H202       84.9401   60.1250   45.5849 dc         1 CLA      0.065600
     94 H201       85.0298   58.3602   45.5292 dc         1 CLA      0.065600
     95 H193       82.9683   58.8855   47.2964 dc         1 CLA      0.065600
     96 H192       83.1667   60.5937   47.0457 dc         1 CLA      0.065600
     97 H191       81.6363   59.8783   46.6690 dc         1 CLA      0.065600
     98 H172       81.2611   58.1897   44.9264 dc         1 CLA      0.027600
     99 H171       82.7741   57.3301   45.2159 dc         1 CLA      0.027600
    100 H162       83.4438   57.8906   42.8710 dc         1 CLA      0.002900
    101 H161       81.9113   58.7839   42.6797 dc         1 CLA      0.002900
    102 H152       80.6391   56.7240   42.8473 dc         1 CLA      0.029100
    103 H151       81.9550   55.8495   43.3532 dc         1 CLA      0.029100
    104 H143       82.0142   57.9459   40.1905 dc         1 CLA      0.063600
    105 H142       81.0332   56.7420   39.3189 dc         1 CLA      0.063600
    106 H141       80.3631   57.5403   40.7524 dc         1 CLA      0.063600
    107 H122       83.3652   54.6054   41.6136 dc         1 CLA      0.032500
    108 H121       83.7574   56.2102   40.9674 dc         1 CLA      0.032500
    109 H112       82.9610   55.5158   38.7958 dc         1 CLA      0.006600
    110 H111       82.5174   53.8814   39.6424 dc         1 CLA      0.006600
    111 H102       84.6489   53.2683   39.6073 dc         1 CLA      0.024100
    112 H101       85.2849   54.8909   39.7593 dc         1 CLA      0.024100
    113 HHD        71.5561   56.8385   39.7195 da         1 CLA      0.174300
    114 HHC        75.9542   60.4161   42.8092 da         1 CLA      0.136800
    115 HHB        79.9100   59.8389   37.7263 da         1 CLA      0.138300
    116 HBD        75.1548   56.4031   33.7074 dc         1 CLA      0.107700
    117 HAB        77.5733   62.0951   43.1770 da         1 CLA      0.155200
    118 H93        86.8714   53.3753   38.0735 dc         1 CLA      0.069500
    119 H92        86.6834   53.8651   36.3925 dc         1 CLA      0.069500
    120 H91        86.9871   55.1509   37.6253 dc         1 CLA      0.069500
    121 H8         84.5755   55.3290   37.2682 dc         1 CLA      0.029300
    122 H72        82.9743   53.4653   37.1914 dc         1 CLA      0.044400
    123 H71        84.3141   52.2904   37.1250 dc         1 CLA      0.044400
    124 H62        85.0768   53.2012   35.0792 dc         1 CLA      0.015600
    125 H61        83.7120   54.4208   35.0375 dc         1 CLA      0.015600
    126 H52        83.8610   51.5018   34.9132 dc         1 CLA      0.033200
    127 H51        83.3161   52.4625   33.6070 dc         1 CLA      0.033200
    128 H43        81.8208   50.7851   36.7385 dc         1 CLA      0.037000
    129 H42        80.3399   50.5893   35.4752 dc         1 CLA      0.037000
    130 H41        81.8423   50.1136   34.9990 dc         1 CLA      0.037000
    131 H3A        79.5275   58.8510   35.4877 dc         1 CLA      0.041100
    132 H2A        78.4089   56.0226   35.3837 dc         1 CLA      0.083100
    133 H2         80.9298   53.7953   35.5641 da         1 CLA      0.180900
    134 H18        82.7058   60.3027   44.6186 dc         1 CLA     -0.003900
    135 H13        81.0149   55.1096   41.2077 dc         1 CLA      0.019700
    136 H12        79.0631   53.1412   33.4560 dc         1 CLA      0.120400
    137 H11        80.6596   53.3148   32.6868 dc         1 CLA      0.120400
    138 C1         68.1516   60.7294   49.3264 Z1         2 LUT      0.509236
    139 C2         66.8936   60.5765   50.0930 Z2         2 LUT     -0.434695
    140 C3         66.1046   61.8514   50.3912 Z3         2 LUT      0.437453
    141 O3         66.1631   62.2123   51.7329 S1         2 LUT     -0.547129
    142 C4         66.3709   62.9711   49.3764 Z4         2 LUT     -0.468603
    143 C5         67.0669   62.6263   48.1082 Z5         2 LUT      0.279246
    144 C6         67.8608   61.5495   48.0112 Z6         2 LUT     -0.305473
    145 C7         68.3966   61.0348   46.6682 Z7         2 LUT      0.069402
    146 C8         69.0449   61.7634   45.7348 Z8         2 LUT     -0.191631
    147 C9         69.4417   61.3248   44.4702 Z9         2 LUT      0.196698
    148 C10        70.4284   62.1266   43.8319 Y1         2 LUT     -0.208611
    149 C11        71.1230   61.8137   42.5784 Y2         2 LUT      0.030784
    150 C12        72.1640   62.6335   42.2337 Y3         2 LUT     -0.220316
    151 C13        73.1049   62.4796   41.1529 Y4         2 LUT      0.215937
    152 C14        74.3491   63.1181   41.1326 Y5         2 LUT     -0.185793
    153 C15        75.4071   63.1218   40.2560 Y6         2 LUT     -0.057835
    154 C16        68.7543   59.3802   48.9531 Y7         2 LUT     -0.405615
    155 C17        69.0894   61.4394   50.2665 Y7         2 LUT     -0.405615
    156 C18        66.5125   63.3795   46.9207 Y9         2 LUT     -0.369639
    157 C19        68.9727   60.0190   43.8500 W1         2 LUT     -0.333362
    158 C20        72.6590   61.6862   39.9959 W2         2 LUT     -0.323439
    159 C21        87.0186   63.8377   34.6768 Z1         2 LUT      0.406104
    160 C22        87.8352   63.2928   33.4928 Z2         2 LUT     -0.404965
    161 C23        88.3864   64.4754   32.5863 Z3         2 LUT      0.391255
    162 O23        89.3537   63.8381   31.7533 S1         2 LUT     -0.528210
    163 C24        87.1546   65.1687   32.0999 W6         2 LUT     -0.258361
    164 C25        85.9493   65.2985   32.7017 Z5         2 LUT      0.133546
    165 C26        85.7416   64.5416   34.0585 W8         2 LUT     -0.147008
    166 C27        84.7367   65.1715   35.0307 Z7         2 LUT      0.023843
    167 C28        83.8250   64.5024   35.7800 Z8         2 LUT     -0.216987
    168 C29        83.0587   65.1850   36.7865 Z9         2 LUT      0.206524
    169 C30        82.0950   64.4856   37.4580 Y1         2 LUT     -0.215556
    170 C31        81.1306   64.8863   38.4837 Y2         2 LUT      0.025142
    171 C32        79.9760   64.1600   38.6018 Y3         2 LUT     -0.212209
    172 C33        78.8965   64.3464   39.6107 Y4         2 LUT      0.240937
    173 C34        77.7286   63.6708   39.5147 Y5         2 LUT     -0.218862
    174 C35        76.6492   63.6558   40.4542 Y6         2 LUT     -0.023547
    175 C36        87.7654   64.8890   35.6578 Y7         2 LUT     -0.393485
    176 C37        86.7703   62.4455   35.5683 Y7         2 LUT     -0.393485
    177 C38        84.7965   66.1615   32.1098 Y9         2 LUT     -0.387526
    178 C39        83.2997   66.7021   37.0890 W1         2 LUT     -0.322618
    179 C40        79.0904   65.4591   40.6501 W2         2 LUT     -0.358472
    180 H403       80.0297   65.3906   41.2158 R7         2 LUT      0.097720
    181 H402       78.9585   66.5039   40.3121 R7         2 LUT      0.097720
    182 H401       78.4373   65.3920   41.4418 R7         2 LUT      0.097720
    183 H393       84.2912   67.0270   37.3564 R4         2 LUT      0.082505
    184 H392       82.8593   67.2636   36.2826 R4         2 LUT      0.082505
    185 H391       82.7739   67.0967   37.9865 R4         2 LUT      0.082505
    186 H383       85.1285   66.9152   31.4325 R1         2 LUT      0.104030
    187 H382       84.1186   65.5001   31.5992 R1         2 LUT      0.104030
    188 H381       84.1544   66.6331   32.8933 R1         2 LUT      0.104030
    189 H373       86.2584   61.7020   35.0151 T4         2 LUT      0.089537
    190 H372       87.7069   62.0420   35.9482 T4         2 LUT      0.089537
    191 H371       86.0415   62.6525   36.3829 T4         2 LUT      0.089537
    192 H363       88.7173   64.4411   35.9406 T4         2 LUT      0.089537
    193 H362       88.0673   65.8839   35.1565 T4         2 LUT      0.089537
    194 H361       87.1695   65.0925   36.6388 T4         2 LUT      0.089537
    195 H222       88.5583   62.5640   33.8293 U2         2 LUT      0.127376
    196 H221       87.1880   62.7383   32.9020 U2         2 LUT      0.127376
    197 H203       72.4311   60.6626   40.2690 R7         2 LUT      0.087068
    198 H202       71.8192   62.2375   39.5329 R7         2 LUT      0.087068
    199 H201       73.3863   61.7725   39.1837 R7         2 LUT      0.087068
    200 H193       69.7639   59.3044   43.8580 R4         2 LUT      0.089716
    201 H192       68.3256   59.4576   44.4248 R4         2 LUT      0.089716
    202 H191       68.6365   60.2111   42.8672 R4         2 LUT      0.089716
    203 H183       66.6027   64.4554   46.9526 R1         2 LUT      0.094572
    204 H182       66.9277   63.0396   45.9570 R1         2 LUT      0.094572
    205 H181       65.4156   63.2703   46.8216 R1         2 LUT      0.094572
    206 H173       69.1301   60.8712   51.2081 T4         2 LUT      0.093752
    207 H172       70.1481   61.4499   49.9795 T4         2 LUT      0.093752
    208 H171       68.8601   62.5097   50.5150 T4         2 LUT      0.093752
    209 H163       68.7785   58.7834   49.8637 T4         2 LUT      0.093752
    210 H162       68.1184   58.8204   48.2125 T4         2 LUT      0.093752
    211 H161       69.7454   59.4099   48.4553 T4         2 LUT      0.093752
    212 HO3        65.5326   61.8016   52.3402 Q1         2 LUT      0.300121
    213 H8         69.3413   62.8129   45.8797 U7         2 LUT      0.080784
    214 H7         68.2189   60.0179   46.3994 U6         2 LUT      0.042190
    215 H42        65.4461   63.3777   49.0860 U5         2 LUT      0.145166
    216 H41        66.9240   63.8479   49.8385 U5         2 LUT      0.145166
    217 H35        76.7387   64.2036   41.3469 T3         2 LUT      0.077919
    218 H34        77.7855   63.0431   38.6570 T2         2 LUT      0.073626
    219 H32        79.7817   63.4204   37.8116 T1         2 LUT      0.092510
    220 H31        81.3474   65.7942   39.0732 U9         2 LUT      0.070048
    221 H30        82.0519   63.4947   37.1530 U8         2 LUT      0.085442
    222 H3         65.0940   61.5618   50.0272 U3         2 LUT     -0.031596
    223 H28        83.7848   63.4367   35.6218 U7         2 LUT      0.084728
    224 H27        84.8927   66.2765   35.0529 U6         2 LUT      0.087291
    225 H26        85.1955   63.6888   33.5753 Q6         2 LUT      0.075325
    226 H24        87.2486   65.7155   31.1366 Q5         2 LUT      0.094482
    227 H23        89.0066   65.2612   33.0626 U3         2 LUT     -0.024869
    228 H22        66.2073   59.9508   49.4803 U2         2 LUT      0.127376
    229 H21        67.0929   60.1158   51.0793 U2         2 LUT      0.127376
    230 H15        75.2604   62.6149   39.3490 T3         2 LUT      0.093200
    231 H14        74.5689   63.6188   42.0579 T2         2 LUT      0.068865
    232 H12        72.3576   63.3778   43.0293 T1         2 LUT      0.095507
    233 H11        70.8127   60.9437   41.9302 U9         2 LUT      0.068930
    234 H10        70.6821   63.0200   44.3482 U8         2 LUT      0.083911
    235 H1         88.8540   63.6399   30.8854 Q1         2 LUT      0.297311
@<TRIPOS>BOND
    1     6     1 1
    2     7     2 1
    3     8     3 1
    4     9     4 1
    5    11     4 1
    6    12     6 1
    7    13     9 1
    8    16     9 1
    9    25     5 1
   10    25    16 1
   11    26    10 1
   12    26    17 1
   13    27    18 1
   14    28    14 1
   15    28    19 1
   16    29    12 1
   17    30    13 1
   18    31    24 1
   19    32     1 1
   20    32    25 1
   21    33    21 1
   22    33    26 1
   23    34    22 1
   24    34    27 1
   25    35    23 1
   26    35    28 1
   27    36    12 1
   28    36    24 1
   29    37    13 1
   30    37    15 1
   31    38    31 1
   32    39    20 1
   33    39    32 1
   34    40     2 1
   35    40    33 1
   36    41     3 1
   37    41    34 1
   38    42     4 1
   39    42    35 1
   40    43    38 1
   41    44     5 1
   42    44    17 1
   43    44    39 1
   44    45    10 1
   45    45    18 1
   46    45    40 1
   47    46    19 1
   48    46    41 1
   49    47    14 1
   50    47    16 1
   51    47    42 1
   52    48    38 1
   53    49    48 1
   54    50    49 1
   55    51    50 1
   56    52    51 1
   57    53    51 1
   58    54    53 1
   59    55    54 1
   60    56    55 1
   61    57    56 1
   62    58    56 1
   63    59    58 1
   64    60    59 1
   65    61    60 1
   66    62    61 1
   67    63    61 1
   68    64    27 1
   69    64    46 1
   70    65     5 1
   71    65    10 1
   72    65    64 1
   73    65    14 1
   74    66    23 1
   75    67    23 1
   76    68    23 1
   77    69    22 1
   78    70    22 1
   79    71    22 1
   80    72    21 1
   81    73    21 1
   82    74    21 1
   83    75    20 1
   84    76    20 1
   85    77    20 1
   86    78    15 1
   87    79    15 1
   88    80    15 1
   89    81     8 1
   90    82     8 1
   91    83     8 1
   92    84     7 1
   93    85     7 1
   94    86     6 1
   95    87     6 1
   96    88     3 1
   97    89     3 1
   98    90     1 1
   99    91     1 1
  100    92    63 1
  101    93    63 1
  102    94    63 1
  103    95    62 1
  104    96    62 1
  105    97    62 1
  106    98    60 1
  107    99    60 1
  108   100    59 1
  109   101    59 1
  110   102    58 1
  111   103    58 1
  112   104    57 1
  113   105    57 1
  114   106    57 1
  115   107    55 1
  116   108    55 1
  117   109    54 1
  118   110    54 1
  119   111    53 1
  120   112    53 1
  121   113    19 1
  122   114    18 1
  123   115    17 1
  124   116     9 1
  125   117     2 1
  126   118    52 1
  127   119    52 1
  128   120    52 1
  129   121    51 1
  130   122    50 1
  131   123    50 1
  132   124    49 1
  133   125    49 1
  134   126    48 1
  135   127    48 1
  136   128    43 1
  137   129    43 1
  138   130    43 1
  139   131    39 1
  140   132    32 1
  141   133    31 1
  142   134    61 1
  143   135    56 1
  144   136    24 1
  145   137    24 1
  146   139   138 1
  147   140   139 1
  148   141   140 1
  149   142   140 1
  150   143   142 1
  151   144   138 1
  152   144   143 1
  153   145   144 1
  154   146   145 1
  155   147   146 1
  156   148   147 1
  157   149   148 1
  158   150   149 1
  159   151   150 1
  160   152   151 1
  161   153   152 1
  162   154   138 1
  163   155   138 1
  164   156   143 1
  165   157   147 1
  166   158   151 1
  167   160   159 1
  168   161   160 1
  169   162   161 1
  170   163   161 1
  171   164   163 1
  172   165   159 1
  173   165   164 1
  174   166   165 1
  175   167   166 1
  176   168   167 1
  177   169   168 1
  178   170   169 1
  179   171   170 1
  180   172   171 1
  181   173   172 1
  182   174   153 1
  183   174   173 1
  184   175   159 1
  185   176   159 1
  186   177   164 1
  187   178   168 1
  188   179   172 1
  189   180   179 1
  190   181   179 1
  191   182   179 1
  192   183   178 1
  193   184   178 1
  194   185   178 1
  195   186   177 1
  196   187   177 1
  197   188   177 1
  198   189   176 1
  199   190   176 1
  200   191   176 1
  201   192   175 1
  202   193   175 1
  203   194   175 1
  204   195   160 1
  205   196   160 1
  206   197   158 1
  207   198   158 1
  208   199   158 1
  209   200   157 1
  210   201   157 1
  211   202   157 1
  212   203   156 1
  213   204   156 1
  214   205   156 1
  215   206   155 1
  216   207   155 1
  217   208   155 1
  218   209   154 1
  219   210   154 1
  220   211   154 1
  221   212   141 1
  222   213   146 1
  223   214   145 1
  224   215   142 1
  225   216   142 1
  226   217   174 1
  227   218   173 1
  228   219   171 1
  229   220   170 1
  230   221   169 1
  231   222   140 1
  232   223   167 1
  233   224   166 1
  234   225   165 1
  235   226   163 1
  236   227   161 1
  237   228   139 1
  238   229   139 1
  239   230   153 1
  240   231   152 1
  241   232   150 1
  242   233   149 1
  243   234   148 1
  244   235   162 1
  245   65    153 1
  246   65    174 1
@<TRIPOS>SUBSTRUCTURE
      1 CLA               1 ****               0 ****  **** 
      2 LUT             138 ****               0 ****  **** 
