@<TRIPOS>MOLECULE
Cpptraj generated mol2 file.
  235   246     2     0     0
SMALL
USER_CHARGES


@<TRIPOS>ATOM
      1 CAA        80.0461   59.3759   34.7564 a2         1 CLA     -0.055900
      2 CAB        79.1267   61.5138   44.1717 c8         1 CLA     -0.148500
      3 CAC        72.3684   57.8147   42.4218 a2         1 CLA     -0.012600
      4 CAD        75.6728   56.9859   34.8999 ck         1 CLA      0.398800
      5 NA         78.8255   58.9582   38.0378 ns         1 CLA     -0.225500
      6 CBA        81.3673   59.2517   34.0951 a2         1 CLA     -0.135000
      7 CBB        79.4136   62.7924   44.4494 c0         1 CLA     -0.395200
      8 CBC        72.4662   56.3571   42.9047 a3         1 CLA     -0.037700
      9 CBD        77.2091   57.4282   34.8679 a1         1 CLA     -0.053900
     10 NB         78.3991   60.0989   40.7778 nm         1 CLA     -0.295700
     11 OBD        75.1126   56.5558   33.9369 o2         1 CLA     -0.494600
     12 CGA        81.7453   57.9097   33.4853 c4         1 CLA      0.827000
     13 CGD        78.0891   56.3255   34.3301 c4         1 CLA      0.655300
     14 ND         76.0313   58.1427   38.1978 nm         1 CLA     -0.291600
     15 CED        78.6123   53.9703   34.3918 a3         1 CLA      0.005400
     16 CHA        77.5057   58.0354   36.2089 cs         1 CLA     -0.123800
     17 CHB        80.4435   60.2503   39.3507 aa         1 CLA     -0.291900
     18 CHC        76.8654   59.9578   42.7292 aa         1 CLA     -0.090400
     19 CHD        73.9279   57.9669   39.5339 aa         1 CLA     -0.052000
     20 CMA        82.1930   58.5198   37.7397 a3         1 CLA     -0.230700
     21 CMB        81.4855   61.9194   41.9077 a3         1 CLA     -0.180800
     22 CMC        74.3634   59.2669   44.5628 a3         1 CLA     -0.134000
     23 CMD        72.7894   56.8636   36.8159 a3         1 CLA     -0.141100
     24 C1         82.4299   55.6900   34.0242 a2         1 CLA      0.023000
     25 C1A        78.7251   58.5259   36.7509 ac         1 CLA     -0.015100
     26 C1B        79.6408   60.5613   40.5507 cr         1 CLA      0.054700
     27 C1C        75.7234   59.3069   42.2551 cn         1 CLA     -0.005600
     28 C1D        74.7001   57.7596   38.3524 ap         1 CLA     -0.047300
     29 O1A        81.7668   57.6664   32.3374 o2         1 CLA     -0.610800
     30 O1D        78.9699   56.4813   33.4971 o2         1 CLA     -0.558200
     31 C2         83.1210   54.7875   35.0292 c8         1 CLA     -0.325100
     32 C2A        80.0920   58.6024   36.0630 a1         1 CLA      0.098600
     33 C2B        80.1702   61.2038   41.7881 cb         1 CLA      0.088500
     34 C2C        74.5329   58.9962   43.0711 cb         1 CLA      0.053700
     35 C2D        74.1741   57.2380   37.1043 cb         1 CLA      0.058900
     36 O2A        82.1286   57.0580   34.4352 o1         1 CLA     -0.437200
     37 O2D        77.8912   55.1145   34.9319 o1         1 CLA     -0.357600
     38 C3         84.1172   53.9083   34.8039 c5         1 CLA      0.031200
     39 C3A        81.0318   59.2803   37.1038 a1         1 CLA      0.166800
     40 C3B        79.1751   61.0303   42.8112 cb         1 CLA      0.035000
     41 C3C        73.6858   58.3973   42.1356 cb         1 CLA     -0.089900
     42 C3D        75.2667   57.2467   36.2426 cb         1 CLA     -0.035900
     43 C4         83.8923   52.4496   34.3843 a3         1 CLA     -0.053300
     44 C4A        80.0752   59.5444   38.2157 ac         1 CLA      0.001800
     45 C4B        78.0902   60.3072   42.1039 cn         1 CLA     -0.020900
     46 C4C        74.4153   58.3262   40.8086 cr         1 CLA     -0.044400
     47 C4D        76.3424   57.8555   36.9710 c6         1 CLA     -0.046000
     48 C5         85.5683   54.4296   34.8307 a2         1 CLA     -0.070400
     49 C6         85.7928   55.7580   35.5703 a2         1 CLA      0.043900
     50 C7         85.7338   55.4897   37.1170 a2         1 CLA     -0.150000
     51 C8         85.6498   56.7745   37.8849 a1         1 CLA      0.064200
     52 C9         86.7690   57.8002   37.5519 a3         1 CLA     -0.259300
     53 C10        85.7258   56.3789   39.4268 a2         1 CLA     -0.071900
     54 C11        85.4175   57.4259   40.4794 a2         1 CLA      0.014500
     55 C12        85.0947   56.7214   41.7988 a2         1 CLA     -0.112100
     56 C13        85.1527   57.7070   43.0630 a1         1 CLA      0.089200
     57 C14        86.4879   58.4309   43.2224 a3         1 CLA     -0.239100
     58 C15        84.7871   56.9135   44.3689 a2         1 CLA     -0.102200
     59 C16        83.3030   56.6172   44.5265 a2         1 CLA      0.023900
     60 C17        82.5168   57.9269   44.7877 a2         1 CLA     -0.105700
     61 C18        82.9072   58.9980   45.8866 a1         1 CLA      0.206800
     62 C19        81.9715   60.2589   45.8113 a3         1 CLA     -0.280100
     63 C20        83.0072   58.3567   47.2464 a3         1 CLA     -0.280100
     64 NC         75.6998   58.9219   40.9661 nx         1 CLA     -0.309200
     65 MG         77.1713   59.1893   39.4622 mg         1 CLA      0.895000
     66 HMD3       72.4393   57.8030   36.4408 dc         1 CLA      0.064300
     67 HMD2       72.7257   56.0590   36.1039 dc         1 CLA      0.064300
     68 HMD1       72.2010   56.5697   37.6828 dc         1 CLA      0.064300
     69 HMC3       74.9770   60.0125   45.0095 dc         1 CLA      0.052100
     70 HMC2       73.3217   59.6588   44.6732 dc         1 CLA      0.052100
     71 HMC1       74.3662   58.3091   45.0496 dc         1 CLA      0.052100
     72 HMB3       81.5470   62.7096   41.1862 dc         1 CLA      0.063600
     73 HMB2       81.6014   62.3922   42.8920 dc         1 CLA      0.063600
     74 HMB1       82.2988   61.2190   41.6871 dc         1 CLA      0.063600
     75 HMA3       83.0632   58.5777   37.0439 dc         1 CLA      0.058300
     76 HMA2       82.5011   59.0076   38.6500 dc         1 CLA      0.058300
     77 HMA1       81.9026   57.5545   37.9185 dc         1 CLA      0.058300
     78 HED3       78.3243   53.0065   34.8278 dc         1 CLA      0.079300
     79 HED2       78.3831   53.8605   33.3493 dc         1 CLA      0.079300
     80 HED1       79.6636   53.9722   34.4816 dc         1 CLA      0.079300
     81 HBC3       71.5129   55.9204   43.2296 dc         1 CLA      0.016300
     82 HBC2       72.8454   55.8644   42.0338 dc         1 CLA      0.016300
     83 HBC1       73.0663   56.2286   43.7677 dc         1 CLA      0.016300
     84 HBB2       79.1655   63.3194   45.3642 da         1 CLA      0.183000
     85 HBB1       79.8563   63.4767   43.7052 da         1 CLA      0.183000
     86 HBA2       81.3119   60.0252   33.2798 dc         1 CLA      0.029400
     87 HBA1       82.1633   59.6511   34.7119 dc         1 CLA      0.029400
     88 HAC2       71.8493   58.3338   43.2032 dc         1 CLA      0.029300
     89 HAC1       71.6478   57.9271   41.5844 dc         1 CLA      0.029300
     90 HAA2       79.2743   59.0203   34.1046 dc         1 CLA      0.028700
     91 HAA1       79.7893   60.4175   34.9583 dc         1 CLA      0.028700
     92 H203       83.3875   59.1064   47.9794 dc         1 CLA      0.065600
     93 H202       82.0148   58.0526   47.4129 dc         1 CLA      0.065600
     94 H201       83.6265   57.4758   47.1944 dc         1 CLA      0.065600
     95 H193       80.9396   59.9866   46.2972 dc         1 CLA      0.065600
     96 H192       82.5923   60.9803   46.3652 dc         1 CLA      0.065600
     97 H191       81.8752   60.5762   44.7309 dc         1 CLA      0.065600
     98 H172       82.5853   58.4690   43.8775 dc         1 CLA      0.027600
     99 H171       81.5281   57.5845   44.9309 dc         1 CLA      0.027600
    100 H162       82.9334   56.1315   43.6661 dc         1 CLA      0.002900
    101 H161       83.1394   56.0173   45.4373 dc         1 CLA      0.002900
    102 H152       85.3604   55.9914   44.4161 dc         1 CLA      0.029100
    103 H151       85.1807   57.4377   45.2326 dc         1 CLA      0.029100
    104 H143       87.2485   57.8878   43.6897 dc         1 CLA      0.063600
    105 H142       86.8601   58.7305   42.2486 dc         1 CLA      0.063600
    106 H141       86.2959   59.3150   43.7938 dc         1 CLA      0.063600
    107 H122       84.1182   56.3038   41.6462 dc         1 CLA      0.032500
    108 H121       85.7731   55.8571   41.9152 dc         1 CLA      0.032500
    109 H112       86.3373   57.8944   40.4974 dc         1 CLA      0.006600
    110 H111       84.5463   58.0235   40.1867 dc         1 CLA      0.006600
    111 H102       84.8986   55.6627   39.5154 dc         1 CLA      0.024100
    112 H101       86.5231   55.7239   39.7063 dc         1 CLA      0.024100
    113 HHD        72.9049   57.6031   39.4466 da         1 CLA      0.174300
    114 HHC        76.6310   60.1527   43.7909 da         1 CLA      0.136800
    115 HHB        81.3882   60.7626   39.2627 da         1 CLA      0.138300
    116 HBD        77.3323   58.1977   34.1100 dc         1 CLA      0.107700
    117 HAB        78.5272   60.9861   44.9597 da         1 CLA      0.155200
    118 H93        86.7619   58.6770   38.1457 dc         1 CLA      0.069500
    119 H92        87.7586   57.4343   37.6726 dc         1 CLA      0.069500
    120 H91        86.6826   58.1575   36.4884 dc         1 CLA      0.069500
    121 H8         84.6990   57.3750   37.7902 dc         1 CLA      0.029300
    122 H72        84.9830   54.8889   37.4943 dc         1 CLA      0.044400
    123 H71        86.6186   54.8642   37.3688 dc         1 CLA      0.044400
    124 H62        86.8312   56.0115   35.4196 dc         1 CLA      0.015600
    125 H61        85.0701   56.5214   35.2542 dc         1 CLA      0.015600
    126 H52        86.2641   53.7251   35.2505 dc         1 CLA      0.033200
    127 H51        85.8740   54.6114   33.7536 dc         1 CLA      0.033200
    128 H43        84.5036   51.8359   34.9048 dc         1 CLA      0.037000
    129 H42        82.8361   52.3918   34.5215 dc         1 CLA      0.037000
    130 H41        84.0691   52.3133   33.3192 dc         1 CLA      0.037000
    131 H3A        81.3569   60.2471   36.6214 dc         1 CLA      0.041100
    132 H2A        80.3374   57.5741   35.8535 dc         1 CLA      0.083100
    133 H2         82.8117   54.8728   36.1041 da         1 CLA      0.180900
    134 H18        83.9556   59.2711   45.5588 dc         1 CLA     -0.003900
    135 H13        84.3865   58.4591   42.9092 dc         1 CLA      0.019700
    136 H12        81.6320   55.0850   33.5912 dc         1 CLA      0.120400
    137 H11        83.1862   55.6860   33.2083 dc         1 CLA      0.120400
    138 C1         69.2811   61.3819   50.6963 Z1         2 LUT      0.509236
    139 C2         67.7626   61.1727   51.1471 Z2         2 LUT     -0.434695
    140 C3         66.9477   62.4866   51.4288 Z3         2 LUT      0.437453
    141 O3         67.1779   62.9673   52.7467 S1         2 LUT     -0.547129
    142 C4         67.3800   63.6594   50.5050 Z4         2 LUT     -0.468603
    143 C5         68.2767   63.2514   49.3226 Z5         2 LUT      0.279246
    144 C6         69.2997   62.3476   49.4719 Z6         2 LUT     -0.305473
    145 C7         69.8159   61.8699   48.1378 Z7         2 LUT      0.069402
    146 C8         70.6631   62.5407   47.2674 Z8         2 LUT     -0.191631
    147 C9         71.1943   61.9756   45.9824 Z9         2 LUT      0.196698
    148 C10        72.2297   62.6877   45.3761 Y1         2 LUT     -0.208611
    149 C11        72.8219   62.4857   44.1018 Y2         2 LUT      0.030784
    150 C12        74.0513   63.0225   43.9349 Y3         2 LUT     -0.220316
    151 C13        74.8415   62.9667   42.7291 Y4         2 LUT      0.215937
    152 C14        75.9832   63.7266   42.7430 Y5         2 LUT     -0.185793
    153 C15        77.0163   63.7538   41.7322 Y6         2 LUT     -0.057835
    154 C16        69.7598   59.8379   50.3845 Y7         2 LUT     -0.405615
    155 C17        69.9217   62.0526   51.9142 Y7         2 LUT     -0.405615
    156 C18        67.8127   63.9464   48.0277 Y9         2 LUT     -0.369639
    157 C19        70.6276   60.8318   45.1977 W1         2 LUT     -0.333362
    158 C20        74.2903   62.2294   41.5374 W2         2 LUT     -0.323439
    159 C21        88.4342   65.8560   35.8180 Z1         2 LUT      0.406104
    160 C22        88.9366   65.5244   34.3728 Z2         2 LUT     -0.404965
    161 C23        88.7345   66.4849   33.2882 Z3         2 LUT      0.391255
    162 O23        88.8644   65.6889   32.0451 S1         2 LUT     -0.528210
    163 C24        87.3804   67.1115   33.4171 W6         2 LUT     -0.258361
    164 C25        86.5450   66.9743   34.4099 Z5         2 LUT      0.133546
    165 C26        86.8554   66.1190   35.6285 W8         2 LUT     -0.147008
    166 C27        86.3089   66.6893   36.8140 Z7         2 LUT      0.023843
    167 C28        85.1518   66.2821   37.4238 Z8         2 LUT     -0.216987
    168 C29        84.5076   66.7657   38.6777 Z9         2 LUT      0.206524
    169 C30        83.2761   66.2684   38.9561 Y1         2 LUT     -0.215556
    170 C31        82.3916   66.3813   40.0659 Y2         2 LUT      0.025142
    171 C32        81.2306   65.6488   40.0716 Y3         2 LUT     -0.212209
    172 C33        80.1704   65.6991   41.0508 Y4         2 LUT      0.240937
    173 C34        79.1725   64.7761   40.8714 Y5         2 LUT     -0.218862
    174 C35        78.1168   64.6318   41.8298 Y6         2 LUT     -0.023547
    175 C36        89.3116   67.1040   36.1744 Y7         2 LUT     -0.393485
    176 C37        88.9328   64.6790   36.6694 Y7         2 LUT     -0.393485
    177 C38        85.1620   67.6210   34.2893 Y9         2 LUT     -0.387526
    178 C39        85.2761   67.8190   39.5106 W1         2 LUT     -0.322618
    179 C40        80.6205   66.3207   42.4296 W2         2 LUT     -0.358472
    180 H403       81.6428   65.9444   42.6654 R7         2 LUT      0.097720
    181 H402       80.5350   67.3513   42.6258 R7         2 LUT      0.097720
    182 H401       79.9797   65.8677   43.1811 R7         2 LUT      0.097720
    183 H393       84.5906   68.5792   39.9895 R4         2 LUT      0.082505
    184 H392       85.8012   67.3420   40.3056 R4         2 LUT      0.082505
    185 H391       86.0393   68.4020   38.9762 R4         2 LUT      0.082505
    186 H383       84.5420   66.9827   33.6790 R1         2 LUT      0.104030
    187 H382       84.5465   67.7454   35.2644 R1         2 LUT      0.104030
    188 H381       85.2209   68.6636   33.8237 R1         2 LUT      0.104030
    189 H373       88.3277   63.7922   36.3832 T4         2 LUT      0.089537
    190 H372       90.0085   64.4970   36.4947 T4         2 LUT      0.089537
    191 H371       88.7867   64.8019   37.7483 T4         2 LUT      0.089537
    192 H363       88.8429   68.0242   35.8054 T4         2 LUT      0.089537
    193 H362       89.4696   67.1201   37.2400 T4         2 LUT      0.089537
    194 H361       90.2922   67.1183   35.7565 T4         2 LUT      0.089537
    195 H222       89.9999   65.2172   34.3589 U2         2 LUT      0.127376
    196 H221       88.4180   64.6442   34.0019 U2         2 LUT      0.127376
    197 H203       74.9414   61.7421   40.7439 R7         2 LUT      0.087068
    198 H202       73.5513   61.4468   41.6570 R7         2 LUT      0.087068
    199 H201       73.7773   62.9560   40.9066 R7         2 LUT      0.087068
    200 H193       71.3788   60.3957   44.5006 R4         2 LUT      0.089716
    201 H192       70.4538   60.0037   45.7546 R4         2 LUT      0.089716
    202 H191       69.8254   61.1849   44.6116 R4         2 LUT      0.089716
    203 H183       68.2677   64.9195   47.8789 R1         2 LUT      0.094572
    204 H182       68.1105   63.4405   47.1176 R1         2 LUT      0.094572
    205 H181       66.7276   64.0021   47.9170 R1         2 LUT      0.094572
    206 H173       69.7422   61.5762   52.8763 T4         2 LUT      0.093752
    207 H172       71.0056   61.9515   51.7633 T4         2 LUT      0.093752
    208 H171       69.7068   63.1043   51.8975 T4         2 LUT      0.093752
    209 H163       69.1465   59.3179   49.6477 T4         2 LUT      0.093752
    210 H162       70.8304   59.8068   50.0638 T4         2 LUT      0.093752
    211 H161       69.6726   59.2478   51.2836 T4         2 LUT      0.093752
    212 HO3        66.5107   62.6438   53.3865 Q1         2 LUT      0.300121
    213 H8         70.9970   63.5338   47.5639 U7         2 LUT      0.080784
    214 H7         69.4117   60.9206   47.8016 U6         2 LUT      0.042190
    215 H42        66.4370   64.1868   50.2093 U5         2 LUT      0.145166
    216 H41        67.9789   64.4539   51.0024 U5         2 LUT      0.145166
    217 H35        78.1275   65.3162   42.6864 T3         2 LUT      0.077919
    218 H34        79.1370   64.1536   39.9831 T2         2 LUT      0.073626
    219 H32        81.1033   64.9511   39.2603 T1         2 LUT      0.092510
    220 H31        82.5995   67.2020   40.7425 U9         2 LUT      0.070048
    221 H30        82.9151   65.5792   38.1557 U8         2 LUT      0.085442
    222 H3         65.8316   62.3959   51.2446 U3         2 LUT     -0.031596
    223 H28        84.5395   65.6677   36.7646 U7         2 LUT      0.084728
    224 H27        86.8848   67.3907   37.4231 U6         2 LUT      0.087291
    225 H26        86.3305   65.1334   35.5702 Q6         2 LUT      0.075325
    226 H24        86.9687   67.6769   32.5201 Q5         2 LUT      0.094482
    227 H23        89.5630   67.1882   33.5054 U3         2 LUT     -0.024869
    228 H22        67.3228   60.7319   50.2470 U2         2 LUT      0.127376
    229 H21        67.6991   60.5283   52.0997 U2         2 LUT      0.127376
    230 H15        76.9229   63.1160   40.8646 T3         2 LUT      0.093200
    231 H14        76.1664   64.4012   43.5586 T2         2 LUT      0.068865
    232 H12        74.3869   63.5839   44.7920 T1         2 LUT      0.095507
    233 H11        72.3980   61.8456   43.3181 U9         2 LUT      0.068930
    234 H10        72.6838   63.4548   45.9277 U8         2 LUT      0.083911
    235 H1         89.2536   66.2365   31.3019 Q1         2 LUT      0.297311
@<TRIPOS>BOND
    1     6     1 1
    2     7     2 1
    3     8     3 1
    4     9     4 1
    5    11     4 1
    6    12     6 1
    7    13     9 1
    8    16     9 1
    9    25     5 1
   10    25    16 1
   11    26    10 1
   12    26    17 1
   13    27    18 1
   14    28    14 1
   15    28    19 1
   16    29    12 1
   17    30    13 1
   18    31    24 1
   19    32     1 1
   20    32    25 1
   21    33    21 1
   22    33    26 1
   23    34    22 1
   24    34    27 1
   25    35    23 1
   26    35    28 1
   27    36    12 1
   28    36    24 1
   29    37    13 1
   30    37    15 1
   31    38    31 1
   32    39    20 1
   33    39    32 1
   34    40     2 1
   35    40    33 1
   36    41     3 1
   37    41    34 1
   38    42     4 1
   39    42    35 1
   40    43    38 1
   41    44     5 1
   42    44    17 1
   43    44    39 1
   44    45    10 1
   45    45    18 1
   46    45    40 1
   47    46    19 1
   48    46    41 1
   49    47    14 1
   50    47    16 1
   51    47    42 1
   52    48    38 1
   53    49    48 1
   54    50    49 1
   55    51    50 1
   56    52    51 1
   57    53    51 1
   58    54    53 1
   59    55    54 1
   60    56    55 1
   61    57    56 1
   62    58    56 1
   63    59    58 1
   64    60    59 1
   65    61    60 1
   66    62    61 1
   67    63    61 1
   68    64    27 1
   69    64    46 1
   70    65     5 1
   71    65    10 1
   72    65    64 1
   73    65    14 1
   74    66    23 1
   75    67    23 1
   76    68    23 1
   77    69    22 1
   78    70    22 1
   79    71    22 1
   80    72    21 1
   81    73    21 1
   82    74    21 1
   83    75    20 1
   84    76    20 1
   85    77    20 1
   86    78    15 1
   87    79    15 1
   88    80    15 1
   89    81     8 1
   90    82     8 1
   91    83     8 1
   92    84     7 1
   93    85     7 1
   94    86     6 1
   95    87     6 1
   96    88     3 1
   97    89     3 1
   98    90     1 1
   99    91     1 1
  100    92    63 1
  101    93    63 1
  102    94    63 1
  103    95    62 1
  104    96    62 1
  105    97    62 1
  106    98    60 1
  107    99    60 1
  108   100    59 1
  109   101    59 1
  110   102    58 1
  111   103    58 1
  112   104    57 1
  113   105    57 1
  114   106    57 1
  115   107    55 1
  116   108    55 1
  117   109    54 1
  118   110    54 1
  119   111    53 1
  120   112    53 1
  121   113    19 1
  122   114    18 1
  123   115    17 1
  124   116     9 1
  125   117     2 1
  126   118    52 1
  127   119    52 1
  128   120    52 1
  129   121    51 1
  130   122    50 1
  131   123    50 1
  132   124    49 1
  133   125    49 1
  134   126    48 1
  135   127    48 1
  136   128    43 1
  137   129    43 1
  138   130    43 1
  139   131    39 1
  140   132    32 1
  141   133    31 1
  142   134    61 1
  143   135    56 1
  144   136    24 1
  145   137    24 1
  146   139   138 1
  147   140   139 1
  148   141   140 1
  149   142   140 1
  150   143   142 1
  151   144   138 1
  152   144   143 1
  153   145   144 1
  154   146   145 1
  155   147   146 1
  156   148   147 1
  157   149   148 1
  158   150   149 1
  159   151   150 1
  160   152   151 1
  161   153   152 1
  162   154   138 1
  163   155   138 1
  164   156   143 1
  165   157   147 1
  166   158   151 1
  167   160   159 1
  168   161   160 1
  169   162   161 1
  170   163   161 1
  171   164   163 1
  172   165   159 1
  173   165   164 1
  174   166   165 1
  175   167   166 1
  176   168   167 1
  177   169   168 1
  178   170   169 1
  179   171   170 1
  180   172   171 1
  181   173   172 1
  182   174   153 1
  183   174   173 1
  184   175   159 1
  185   176   159 1
  186   177   164 1
  187   178   168 1
  188   179   172 1
  189   180   179 1
  190   181   179 1
  191   182   179 1
  192   183   178 1
  193   184   178 1
  194   185   178 1
  195   186   177 1
  196   187   177 1
  197   188   177 1
  198   189   176 1
  199   190   176 1
  200   191   176 1
  201   192   175 1
  202   193   175 1
  203   194   175 1
  204   195   160 1
  205   196   160 1
  206   197   158 1
  207   198   158 1
  208   199   158 1
  209   200   157 1
  210   201   157 1
  211   202   157 1
  212   203   156 1
  213   204   156 1
  214   205   156 1
  215   206   155 1
  216   207   155 1
  217   208   155 1
  218   209   154 1
  219   210   154 1
  220   211   154 1
  221   212   141 1
  222   213   146 1
  223   214   145 1
  224   215   142 1
  225   216   142 1
  226   217   174 1
  227   218   173 1
  228   219   171 1
  229   220   170 1
  230   221   169 1
  231   222   140 1
  232   223   167 1
  233   224   166 1
  234   225   165 1
  235   226   163 1
  236   227   161 1
  237   228   139 1
  238   229   139 1
  239   230   153 1
  240   231   152 1
  241   232   150 1
  242   233   149 1
  243   234   148 1
  244   235   162 1
  245   65    153 1
  246   65    174 1
@<TRIPOS>SUBSTRUCTURE
      1 CLA               1 ****               0 ****  **** 
      2 LUT             138 ****               0 ****  **** 
