@<TRIPOS>MOLECULE
Cpptraj generated mol2 file.
  235   246     2     0     0
SMALL
USER_CHARGES


@<TRIPOS>ATOM
      1 CAA        80.0840   59.1376   34.4434 a2         1 CLA     -0.055900
      2 CAB        79.4591   63.1729   43.1019 c8         1 CLA     -0.148500
      3 CAC        72.7510   58.8894   42.6587 a2         1 CLA     -0.012600
      4 CAD        75.6268   56.7951   35.2773 ck         1 CLA      0.398800
      5 NA         78.7958   59.5396   37.7413 ns         1 CLA     -0.225500
      6 CBA        81.2517   58.9402   33.5581 a2         1 CLA     -0.135000
      7 CBB        80.5179   63.5525   43.8425 c0         1 CLA     -0.395200
      8 CBC        72.9708   57.3829   42.7935 a3         1 CLA     -0.037700
      9 CBD        77.1142   57.2927   35.0806 a1         1 CLA     -0.053900
     10 NB         78.4156   61.1443   40.2052 nm         1 CLA     -0.295700
     11 OBD        75.0723   56.0320   34.5251 o2         1 CLA     -0.494600
     12 CGA        81.6813   57.5680   33.0703 c4         1 CLA      0.827000
     13 CGD        77.9488   56.0777   34.9976 c4         1 CLA      0.655300
     14 ND         75.9679   58.6261   38.2823 nm         1 CLA     -0.291600
     15 CED        78.4752   54.0273   35.9700 a3         1 CLA      0.005400
     16 CHA        77.4759   58.1492   36.2840 cs         1 CLA     -0.123800
     17 CHB        80.4490   60.9605   38.7856 aa         1 CLA     -0.291900
     18 CHC        77.1297   61.3017   42.3046 aa         1 CLA     -0.090400
     19 CHD        73.8789   58.6417   39.6779 aa         1 CLA     -0.052000
     20 CMA        81.9907   58.2752   37.5498 a3         1 CLA     -0.230700
     21 CMB        81.5670   62.9910   40.5768 a3         1 CLA     -0.180800
     22 CMC        74.7787   60.6779   44.3689 a3         1 CLA     -0.134000
     23 CMD        72.7687   56.7895   37.2267 a3         1 CLA     -0.141100
     24 C1         82.2605   55.4689   33.8947 a2         1 CLA      0.023000
     25 C1A        78.7484   58.6449   36.5895 ac         1 CLA     -0.015100
     26 C1B        79.7284   61.4280   39.8590 cr         1 CLA      0.054700
     27 C1C        76.0460   60.5307   42.0164 cn         1 CLA     -0.005600
     28 C1D        74.5991   58.2435   38.5041 ap         1 CLA     -0.047300
     29 O1A        81.5473   57.0715   31.9299 o2         1 CLA     -0.610800
     30 O1D        78.5633   55.7396   33.9767 o2         1 CLA     -0.558200
     31 C2         82.7651   54.8861   35.2073 c8         1 CLA     -0.325100
     32 C2A        80.0889   58.5073   35.8389 a1         1 CLA      0.098600
     33 C2B        80.2336   62.3142   40.7810 cb         1 CLA      0.088500
     34 C2C        74.9129   60.2402   42.8866 cb         1 CLA      0.053700
     35 C2D        74.1033   57.4172   37.3924 cb         1 CLA      0.058900
     36 O2A        82.1485   56.8574   34.1243 o1         1 CLA     -0.437200
     37 O2D        77.9159   55.3304   36.1212 o1         1 CLA     -0.357600
     38 C3         83.5798   53.8460   35.3590 c5         1 CLA      0.031200
     39 C3A        81.0518   59.2357   36.9096 a1         1 CLA      0.166800
     40 C3B        79.3555   62.4222   41.8016 cb         1 CLA      0.035000
     41 C3C        74.0045   59.5683   42.1267 cb         1 CLA     -0.089900
     42 C3D        75.1754   57.3537   36.5119 cb         1 CLA     -0.035900
     43 C4         82.9616   52.3954   35.4436 a3         1 CLA     -0.053300
     44 C4A        80.0733   59.9900   37.9011 ac         1 CLA      0.001800
     45 C4B        78.2232   61.5565   41.4555 cn         1 CLA     -0.020900
     46 C4C        74.5492   59.3312   40.7482 cr         1 CLA     -0.044400
     47 C4D        76.2707   58.1063   37.0382 c6         1 CLA     -0.046000
     48 C5         85.0626   54.0714   34.9994 a2         1 CLA     -0.070400
     49 C6         85.5805   55.5640   35.3682 a2         1 CLA      0.043900
     50 C7         85.6767   55.7246   36.8378 a2         1 CLA     -0.150000
     51 C8         86.5377   56.8621   37.4761 a1         1 CLA      0.064200
     52 C9         88.0061   56.9904   36.8594 a3         1 CLA     -0.259300
     53 C10        86.4482   56.6644   38.9693 a2         1 CLA     -0.071900
     54 C11        86.9712   57.8611   39.7750 a2         1 CLA      0.014500
     55 C12        86.7400   57.6526   41.2350 a2         1 CLA     -0.112100
     56 C13        87.1669   58.8180   42.2247 a1         1 CLA      0.089200
     57 C14        88.7553   59.0997   42.1435 a3         1 CLA     -0.239100
     58 C15        86.7975   58.4215   43.7084 a2         1 CLA     -0.102200
     59 C16        85.2687   58.2137   43.9971 a2         1 CLA      0.023900
     60 C17        84.9380   57.8897   45.4683 a2         1 CLA     -0.105700
     61 C18        84.6856   59.1319   46.3565 a1         1 CLA      0.206800
     62 C19        83.7105   60.1793   45.8307 a3         1 CLA     -0.280100
     63 C20        84.3687   58.7750   47.7927 a3         1 CLA     -0.280100
     64 NC         75.8247   59.9217   40.7414 nx         1 CLA     -0.309200
     65 MG         77.2099   59.9508   39.1613 mg         1 CLA      0.895000
     66 HMD3       72.6546   56.0432   37.9932 dc         1 CLA      0.064300
     67 HMD2       71.9447   57.4922   37.3766 dc         1 CLA      0.064300
     68 HMD1       72.6150   56.2373   36.2868 dc         1 CLA      0.064300
     69 HMC3       74.5335   61.7348   44.4820 dc         1 CLA      0.052100
     70 HMC2       73.9220   60.2835   44.8987 dc         1 CLA      0.052100
     71 HMC1       75.7432   60.5577   44.9349 dc         1 CLA      0.052100
     72 HMB3       82.2766   62.1949   40.6012 dc         1 CLA      0.063600
     73 HMB2       81.7140   63.4786   39.6043 dc         1 CLA      0.063600
     74 HMB1       81.8425   63.7654   41.3028 dc         1 CLA      0.063600
     75 HMA3       81.3813   57.5281   38.1662 dc         1 CLA      0.058300
     76 HMA2       82.5959   57.6693   36.8613 dc         1 CLA      0.058300
     77 HMA1       82.7171   58.7345   38.1913 dc         1 CLA      0.058300
     78 HED3       78.2108   53.3530   35.1958 dc         1 CLA      0.079300
     79 HED2       79.5720   54.1577   35.8677 dc         1 CLA      0.079300
     80 HED1       78.3019   53.5437   36.9525 dc         1 CLA      0.079300
     81 HBC3       73.7534   57.2800   43.5360 dc         1 CLA      0.016300
     82 HBC2       72.1497   56.7899   43.0878 dc         1 CLA      0.016300
     83 HBC1       73.3158   56.9898   41.7776 dc         1 CLA      0.016300
     84 HBB2       80.4657   64.0886   44.8020 da         1 CLA      0.183000
     85 HBB1       81.4557   63.0767   43.5290 da         1 CLA      0.183000
     86 HBA2       81.1505   59.5094   32.5949 dc         1 CLA      0.029400
     87 HBA1       82.0862   59.3255   34.1641 dc         1 CLA      0.029400
     88 HAC2       72.3868   59.2706   43.6267 dc         1 CLA      0.029300
     89 HAC1       71.9369   59.1502   41.9614 dc         1 CLA      0.029300
     90 HAA2       79.1759   58.8976   33.8711 dc         1 CLA      0.028700
     91 HAA1       80.0702   60.2221   34.5501 dc         1 CLA      0.028700
     92 H203       83.3672   58.4306   47.9777 dc         1 CLA      0.065600
     93 H202       85.1264   58.2090   48.1872 dc         1 CLA      0.065600
     94 H201       84.4790   59.6862   48.4177 dc         1 CLA      0.065600
     95 H193       84.0592   60.5663   44.9026 dc         1 CLA      0.065600
     96 H192       82.8267   59.5774   45.6063 dc         1 CLA      0.065600
     97 H191       83.6095   60.9870   46.6215 dc         1 CLA      0.065600
     98 H172       84.0334   57.4128   45.4480 dc         1 CLA      0.027600
     99 H171       85.7065   57.2342   45.9607 dc         1 CLA      0.027600
    100 H162       84.6887   59.0223   43.5840 dc         1 CLA      0.002900
    101 H161       84.9918   57.2866   43.4826 dc         1 CLA      0.002900
    102 H152       87.3203   57.5368   44.1143 dc         1 CLA      0.029100
    103 H151       87.1093   59.3440   44.2072 dc         1 CLA      0.029100
    104 H143       88.9771   59.3477   41.1179 dc         1 CLA      0.063600
    105 H142       88.8961   60.0044   42.7412 dc         1 CLA      0.063600
    106 H141       89.3568   58.2083   42.6018 dc         1 CLA      0.063600
    107 H122       85.6665   57.6133   41.3850 dc         1 CLA      0.032500
    108 H121       87.2065   56.7423   41.6765 dc         1 CLA      0.032500
    109 H112       88.0429   57.8431   39.5619 dc         1 CLA      0.006600
    110 H111       86.5746   58.7922   39.5130 dc         1 CLA      0.006600
    111 H102       85.3565   56.5784   39.2573 dc         1 CLA      0.024100
    112 H101       86.9130   55.7033   39.2800 dc         1 CLA      0.024100
    113 HHD        72.8591   58.1790   39.8544 da         1 CLA      0.174300
    114 HHC        77.1417   61.8530   43.2681 da         1 CLA      0.136800
    115 HHB        81.4779   61.2434   38.6908 da         1 CLA      0.138300
    116 HBD        77.2203   57.8037   34.1192 dc         1 CLA      0.107700
    117 HAB        78.5485   63.4946   43.5974 da         1 CLA      0.155200
    118 H93        88.3629   58.0084   37.2151 dc         1 CLA      0.069500
    119 H92        88.5703   56.1001   37.1062 dc         1 CLA      0.069500
    120 H91        87.7867   56.9933   35.7902 dc         1 CLA      0.069500
    121 H8         86.0157   57.7847   37.2020 dc         1 CLA      0.029300
    122 H72        84.7436   55.6720   37.2954 dc         1 CLA      0.044400
    123 H71        86.0565   54.8108   37.2551 dc         1 CLA      0.044400
    124 H62        86.4818   55.7719   34.7238 dc         1 CLA      0.015600
    125 H61        84.8857   56.4050   35.0793 dc         1 CLA      0.015600
    126 H52        85.6735   53.3833   35.4830 dc         1 CLA      0.033200
    127 H51        85.0552   53.9244   33.9366 dc         1 CLA      0.033200
    128 H43        81.9112   52.5020   35.5599 dc         1 CLA      0.037000
    129 H42        83.0921   51.7646   34.5218 dc         1 CLA      0.037000
    130 H41        83.3883   51.9911   36.3395 dc         1 CLA      0.037000
    131 H3A        81.6011   60.0993   36.3801 dc         1 CLA      0.041100
    132 H2A        80.2900   57.4650   35.7049 dc         1 CLA      0.083100
    133 H2         82.7508   55.5344   36.0638 da         1 CLA      0.180900
    134 H18        85.6315   59.6313   46.5296 dc         1 CLA     -0.003900
    135 H13        86.6369   59.7118   42.0617 dc         1 CLA      0.019700
    136 H12        81.3540   54.8423   33.5941 dc         1 CLA      0.120400
    137 H11        83.0349   55.3353   33.0744 dc         1 CLA      0.120400
    138 C1         68.7071   62.0011   49.7253 Z1         2 LUT      0.509236
    139 C2         67.1758   62.0360   50.0454 Z2         2 LUT     -0.434695
    140 C3         66.5522   63.3229   50.4072 Z3         2 LUT      0.437453
    141 O3         66.9645   63.6451   51.7573 S1         2 LUT     -0.547129
    142 C4         67.0576   64.4201   49.4501 Z4         2 LUT     -0.468603
    143 C5         68.0985   64.0724   48.3720 Z5         2 LUT      0.279246
    144 C6         68.9155   62.9904   48.5542 Z6         2 LUT     -0.305473
    145 C7         69.5916   62.5335   47.2875 Z7         2 LUT      0.069402
    146 C8         70.4966   63.1663   46.5451 Z8         2 LUT     -0.191631
    147 C9         70.9754   62.8638   45.2236 Z9         2 LUT      0.196698
    148 C10        71.9519   63.6962   44.6143 Y1         2 LUT     -0.208611
    149 C11        72.7877   63.5054   43.4295 Y2         2 LUT      0.030784
    150 C12        73.9236   64.2463   43.3439 Y3         2 LUT     -0.220316
    151 C13        74.8356   64.1877   42.2237 Y4         2 LUT      0.215937
    152 C14        76.0193   64.9892   42.3707 Y5         2 LUT     -0.185793
    153 C15        77.1212   65.2325   41.4220 Y6         2 LUT     -0.057835
    154 C16        69.0821   60.5416   49.3637 Y7         2 LUT     -0.405615
    155 C17        69.4794   62.2923   51.0123 Y7         2 LUT     -0.405615
    156 C18        67.8750   64.9361   47.2096 Y9         2 LUT     -0.369639
    157 C19        70.6332   61.5161   44.7379 W1         2 LUT     -0.333362
    158 C20        74.3723   63.8749   40.8426 W2         2 LUT     -0.323439
    159 C21        88.4851   65.9735   35.3654 Z1         2 LUT      0.406104
    160 C22        89.2466   65.5986   34.1233 Z2         2 LUT     -0.404965
    161 C23        89.4266   66.7691   33.1155 Z3         2 LUT      0.391255
    162 O23        90.1887   66.2382   31.9601 S1         2 LUT     -0.528210
    163 C24        88.1183   67.4975   32.8060 W6         2 LUT     -0.258361
    164 C25        86.9911   67.3459   33.5708 Z5         2 LUT      0.133546
    165 C26        87.0237   66.4381   34.8592 W8         2 LUT     -0.147008
    166 C27        86.2896   67.1683   35.9243 Z7         2 LUT      0.023843
    167 C28        85.1049   66.7911   36.5544 Z8         2 LUT     -0.216987
    168 C29        84.4878   67.2110   37.8079 Z9         2 LUT      0.206524
    169 C30        83.2868   66.6807   38.2623 Y1         2 LUT     -0.215556
    170 C31        82.6459   66.9443   39.5417 Y2         2 LUT      0.025142
    171 C32        81.5089   66.3281   39.9016 Y3         2 LUT     -0.212209
    172 C33        80.5935   66.5673   40.9846 Y4         2 LUT      0.240937
    173 C34        79.3684   65.9693   40.8868 Y5         2 LUT     -0.218862
    174 C35        78.2015   65.9824   41.7089 Y6         2 LUT     -0.023547
    175 C36        89.3442   67.0793   36.0883 Y7         2 LUT     -0.393485
    176 C37        88.3633   64.7696   36.3006 Y7         2 LUT     -0.393485
    177 C38        85.6596   67.9044   33.2138 Y9         2 LUT     -0.387526
    178 C39        85.2255   68.2488   38.5688 W1         2 LUT     -0.322618
    179 C40        80.9796   67.6266   41.9281 W2         2 LUT     -0.358472
    180 H403       80.9894   68.5767   41.4412 R7         2 LUT      0.097720
    181 H402       80.1589   67.7868   42.7019 R7         2 LUT      0.097720
    182 H401       81.9372   67.4731   42.4888 R7         2 LUT      0.097720
    183 H393       86.2795   68.1032   38.7500 R4         2 LUT      0.082505
    184 H392       85.2384   69.1892   38.0280 R4         2 LUT      0.082505
    185 H391       84.8387   68.5143   39.5569 R4         2 LUT      0.082505
    186 H383       85.3333   68.5881   34.0646 R1         2 LUT      0.104030
    187 H382       85.7160   68.5940   32.3333 R1         2 LUT      0.104030
    188 H381       84.9682   67.1049   33.0670 R1         2 LUT      0.104030
    189 H373       87.8367   63.9375   35.8795 T4         2 LUT      0.089537
    190 H372       89.3089   64.3798   36.6728 T4         2 LUT      0.089537
    191 H371       87.7929   65.1856   37.1753 T4         2 LUT      0.089537
    192 H363       88.8686   67.3725   37.0159 T4         2 LUT      0.089537
    193 H362       90.2756   66.6244   36.4227 T4         2 LUT      0.089537
    194 H361       89.5909   67.9971   35.5638 T4         2 LUT      0.089537
    195 H222       90.3250   65.3824   34.3291 U2         2 LUT      0.127376
    196 H221       88.9234   64.7313   33.4814 U2         2 LUT      0.127376
    197 H203       73.3287   63.6628   40.8478 R7         2 LUT      0.087068
    198 H202       74.4807   64.7020   40.1665 R7         2 LUT      0.087068
    199 H201       74.8421   63.0444   40.3227 R7         2 LUT      0.087068
    200 H193       69.6238   61.4671   44.4533 R4         2 LUT      0.089716
    201 H192       71.2534   61.2707   43.8971 R4         2 LUT      0.089716
    202 H191       70.8049   60.7542   45.4739 R4         2 LUT      0.089716
    203 H183       66.8983   65.4080   47.1495 R1         2 LUT      0.094572
    204 H182       68.5424   65.8228   47.2866 R1         2 LUT      0.094572
    205 H181       68.0885   64.3649   46.3041 R1         2 LUT      0.094572
    206 H173       70.5356   62.0872   50.8904 T4         2 LUT      0.093752
    207 H172       69.5375   63.3234   51.2513 T4         2 LUT      0.093752
    208 H171       69.0954   61.6842   51.8669 T4         2 LUT      0.093752
    209 H163       70.1390   60.3631   49.1138 T4         2 LUT      0.093752
    210 H162       68.9153   59.8617   50.1867 T4         2 LUT      0.093752
    211 H161       68.4324   60.1845   48.5921 T4         2 LUT      0.093752
    212 HO3        66.3217   63.3394   52.3711 Q1         2 LUT      0.300121
    213 H8         70.6530   64.2141   46.9162 U7         2 LUT      0.080784
    214 H7         69.3021   61.5841   46.8607 U6         2 LUT      0.042190
    215 H42        66.1828   64.9500   49.1001 U5         2 LUT      0.145166
    216 H41        67.5513   65.1662   50.1554 U5         2 LUT      0.145166
    217 H35        78.3682   66.5210   42.6440 T3         2 LUT      0.077919
    218 H34        79.1402   65.4208   40.0613 T2         2 LUT      0.073626
    219 H32        81.0000   65.5854   39.1934 T1         2 LUT      0.092510
    220 H31        83.1513   67.6902   40.1557 U9         2 LUT      0.070048
    221 H30        82.8008   65.9346   37.7376 U8         2 LUT      0.085442
    222 H3         65.4848   63.1993   50.3108 U3         2 LUT     -0.031596
    223 H28        84.6025   65.9450   36.1872 U7         2 LUT      0.084728
    224 H27        86.7308   67.9407   36.5182 U6         2 LUT      0.087291
    225 H26        86.4689   65.5187   34.6623 Q6         2 LUT      0.075325
    226 H24        88.2140   68.1522   31.9135 Q5         2 LUT      0.094482
    227 H23        90.1814   67.4205   33.6107 U3         2 LUT     -0.024869
    228 H22        66.6909   61.7549   49.0940 U2         2 LUT      0.127376
    229 H21        66.8829   61.2726   50.7706 U2         2 LUT      0.127376
    230 H15        77.1313   64.5771   40.5416 T3         2 LUT      0.093200
    231 H14        76.2751   65.4805   43.3000 T2         2 LUT      0.068865
    232 H12        74.2175   64.8168   44.1992 T1         2 LUT      0.095507
    233 H11        72.4984   62.7282   42.7167 U9         2 LUT      0.068930
    234 H10        72.1447   64.5541   45.2310 U8         2 LUT      0.083911
    235 H1         89.5485   65.9490   31.2382 Q1         2 LUT      0.297311
@<TRIPOS>BOND
    1     6     1 1
    2     7     2 1
    3     8     3 1
    4     9     4 1
    5    11     4 1
    6    12     6 1
    7    13     9 1
    8    16     9 1
    9    25     5 1
   10    25    16 1
   11    26    10 1
   12    26    17 1
   13    27    18 1
   14    28    14 1
   15    28    19 1
   16    29    12 1
   17    30    13 1
   18    31    24 1
   19    32     1 1
   20    32    25 1
   21    33    21 1
   22    33    26 1
   23    34    22 1
   24    34    27 1
   25    35    23 1
   26    35    28 1
   27    36    12 1
   28    36    24 1
   29    37    13 1
   30    37    15 1
   31    38    31 1
   32    39    20 1
   33    39    32 1
   34    40     2 1
   35    40    33 1
   36    41     3 1
   37    41    34 1
   38    42     4 1
   39    42    35 1
   40    43    38 1
   41    44     5 1
   42    44    17 1
   43    44    39 1
   44    45    10 1
   45    45    18 1
   46    45    40 1
   47    46    19 1
   48    46    41 1
   49    47    14 1
   50    47    16 1
   51    47    42 1
   52    48    38 1
   53    49    48 1
   54    50    49 1
   55    51    50 1
   56    52    51 1
   57    53    51 1
   58    54    53 1
   59    55    54 1
   60    56    55 1
   61    57    56 1
   62    58    56 1
   63    59    58 1
   64    60    59 1
   65    61    60 1
   66    62    61 1
   67    63    61 1
   68    64    27 1
   69    64    46 1
   70    65     5 1
   71    65    10 1
   72    65    64 1
   73    65    14 1
   74    66    23 1
   75    67    23 1
   76    68    23 1
   77    69    22 1
   78    70    22 1
   79    71    22 1
   80    72    21 1
   81    73    21 1
   82    74    21 1
   83    75    20 1
   84    76    20 1
   85    77    20 1
   86    78    15 1
   87    79    15 1
   88    80    15 1
   89    81     8 1
   90    82     8 1
   91    83     8 1
   92    84     7 1
   93    85     7 1
   94    86     6 1
   95    87     6 1
   96    88     3 1
   97    89     3 1
   98    90     1 1
   99    91     1 1
  100    92    63 1
  101    93    63 1
  102    94    63 1
  103    95    62 1
  104    96    62 1
  105    97    62 1
  106    98    60 1
  107    99    60 1
  108   100    59 1
  109   101    59 1
  110   102    58 1
  111   103    58 1
  112   104    57 1
  113   105    57 1
  114   106    57 1
  115   107    55 1
  116   108    55 1
  117   109    54 1
  118   110    54 1
  119   111    53 1
  120   112    53 1
  121   113    19 1
  122   114    18 1
  123   115    17 1
  124   116     9 1
  125   117     2 1
  126   118    52 1
  127   119    52 1
  128   120    52 1
  129   121    51 1
  130   122    50 1
  131   123    50 1
  132   124    49 1
  133   125    49 1
  134   126    48 1
  135   127    48 1
  136   128    43 1
  137   129    43 1
  138   130    43 1
  139   131    39 1
  140   132    32 1
  141   133    31 1
  142   134    61 1
  143   135    56 1
  144   136    24 1
  145   137    24 1
  146   139   138 1
  147   140   139 1
  148   141   140 1
  149   142   140 1
  150   143   142 1
  151   144   138 1
  152   144   143 1
  153   145   144 1
  154   146   145 1
  155   147   146 1
  156   148   147 1
  157   149   148 1
  158   150   149 1
  159   151   150 1
  160   152   151 1
  161   153   152 1
  162   154   138 1
  163   155   138 1
  164   156   143 1
  165   157   147 1
  166   158   151 1
  167   160   159 1
  168   161   160 1
  169   162   161 1
  170   163   161 1
  171   164   163 1
  172   165   159 1
  173   165   164 1
  174   166   165 1
  175   167   166 1
  176   168   167 1
  177   169   168 1
  178   170   169 1
  179   171   170 1
  180   172   171 1
  181   173   172 1
  182   174   153 1
  183   174   173 1
  184   175   159 1
  185   176   159 1
  186   177   164 1
  187   178   168 1
  188   179   172 1
  189   180   179 1
  190   181   179 1
  191   182   179 1
  192   183   178 1
  193   184   178 1
  194   185   178 1
  195   186   177 1
  196   187   177 1
  197   188   177 1
  198   189   176 1
  199   190   176 1
  200   191   176 1
  201   192   175 1
  202   193   175 1
  203   194   175 1
  204   195   160 1
  205   196   160 1
  206   197   158 1
  207   198   158 1
  208   199   158 1
  209   200   157 1
  210   201   157 1
  211   202   157 1
  212   203   156 1
  213   204   156 1
  214   205   156 1
  215   206   155 1
  216   207   155 1
  217   208   155 1
  218   209   154 1
  219   210   154 1
  220   211   154 1
  221   212   141 1
  222   213   146 1
  223   214   145 1
  224   215   142 1
  225   216   142 1
  226   217   174 1
  227   218   173 1
  228   219   171 1
  229   220   170 1
  230   221   169 1
  231   222   140 1
  232   223   167 1
  233   224   166 1
  234   225   165 1
  235   226   163 1
  236   227   161 1
  237   228   139 1
  238   229   139 1
  239   230   153 1
  240   231   152 1
  241   232   150 1
  242   233   149 1
  243   234   148 1
  244   235   162 1
  245   65    153 1
  246   65    174 1
@<TRIPOS>SUBSTRUCTURE
      1 CLA               1 ****               0 ****  **** 
      2 LUT             138 ****               0 ****  **** 
