@<TRIPOS>MOLECULE
Cpptraj generated mol2 file.
  235   246     2     0     0
SMALL
USER_CHARGES


@<TRIPOS>ATOM
      1 CAA        77.8234   58.3758   33.6239 a2         1 CLA     -0.055900
      2 CAB        78.4577   61.4246   42.9949 c8         1 CLA     -0.148500
      3 CAC        70.9828   58.2240   42.2332 a2         1 CLA     -0.012600
      4 CAD        73.5268   56.0592   34.7030 ck         1 CLA      0.398800
      5 NA         76.9630   58.4982   37.1804 ns         1 CLA     -0.225500
      6 CBA        79.1408   58.2627   32.7454 a2         1 CLA     -0.135000
      7 CBB        79.6147   61.3357   43.6501 c0         1 CLA     -0.395200
      8 CBC        70.3612   56.8975   41.9478 a3         1 CLA     -0.037700
      9 CBD        75.0284   56.4847   34.3970 a1         1 CLA     -0.053900
     10 NB         77.0637   59.7963   39.8792 nm         1 CLA     -0.295700
     11 OBD        72.7432   55.4583   33.9613 o2         1 CLA     -0.494600
     12 CGA        79.6305   56.9253   32.3118 c4         1 CLA      0.827000
     13 CGD        75.9740   55.3744   33.8556 c4         1 CLA      0.655300
     14 ND         74.1421   57.7028   37.7433 nm         1 CLA     -0.291600
     15 CED        76.9253   53.2202   34.4213 a3         1 CLA      0.005400
     16 CHA        75.4767   57.3473   35.6176 cs         1 CLA     -0.123800
     17 CHB        78.7903   59.9042   38.1934 aa         1 CLA     -0.291900
     18 CHC        75.8426   59.8052   42.0007 aa         1 CLA     -0.090400
     19 CHD        72.3185   57.7614   39.3096 aa         1 CLA     -0.052000
     20 CMA        80.4590   57.9283   36.1652 a3         1 CLA     -0.230700
     21 CMB        80.3544   61.5725   40.4026 a3         1 CLA     -0.180800
     22 CMC        73.3107   59.6479   44.0186 a3         1 CLA     -0.134000
     23 CMD        70.7445   56.2391   36.8090 a3         1 CLA     -0.141100
     24 C1         80.9333   55.0410   32.9767 a2         1 CLA      0.023000
     25 C1A        76.7214   57.8979   35.9323 ac         1 CLA     -0.015100
     26 C1B        78.3105   60.1832   39.4628 cr         1 CLA      0.054700
     27 C1C        74.5916   59.1794   41.7135 cn         1 CLA     -0.005600
     28 C1D        72.8245   57.3754   38.0995 ap         1 CLA     -0.047300
     29 O1A        79.3113   56.4186   31.2139 o2         1 CLA     -0.610800
     30 O1D        76.6646   55.4575   32.8250 o2         1 CLA     -0.558200
     31 C2         81.3323   54.3179   34.1941 c8         1 CLA     -0.325100
     32 C2A        77.9883   57.8426   35.1037 a1         1 CLA      0.098600
     33 C2B        79.0159   60.8885   40.5266 cb         1 CLA      0.088500
     34 C2C        73.3948   59.1099   42.5682 cb         1 CLA      0.053700
     35 C2D        72.1925   56.7623   36.9478 cb         1 CLA      0.058900
     36 O2A        80.3458   56.2872   33.3647 o1         1 CLA     -0.437200
     37 O2D        75.8776   54.2744   34.7040 o1         1 CLA     -0.357600
     38 C3         82.0837   53.1912   34.1735 c5         1 CLA      0.031200
     39 C3A        79.0419   58.6242   35.9580 a1         1 CLA      0.166800
     40 C3B        78.2229   60.8276   41.6556 cb         1 CLA      0.035000
     41 C3C        72.3766   58.5242   41.7747 cb         1 CLA     -0.089900
     42 C3D        73.1791   56.6261   35.9514 cb         1 CLA     -0.035900
     43 C4         81.4898   51.7686   34.1004 a3         1 CLA     -0.053300
     44 C4A        78.2304   59.0235   37.2493 ac         1 CLA      0.001800
     45 C4B        76.9957   60.0577   41.2006 cn         1 CLA     -0.020900
     46 C4C        72.9725   58.2948   40.4235 cr         1 CLA     -0.044400
     47 C4D        74.3328   57.2752   36.4573 c6         1 CLA     -0.046000
     48 C5         83.5927   53.2651   34.1140 a2         1 CLA     -0.070400
     49 C6         84.1742   54.5977   34.7132 a2         1 CLA      0.043900
     50 C7         83.9766   54.5751   36.2296 a2         1 CLA     -0.150000
     51 C8         84.4911   55.7890   37.0182 a1         1 CLA      0.064200
     52 C9         85.9076   56.0954   36.8203 a3         1 CLA     -0.259300
     53 C10        84.0754   55.6081   38.4774 a2         1 CLA     -0.071900
     54 C11        82.6311   55.9767   38.9018 a2         1 CLA      0.014500
     55 C12        82.5732   56.4705   40.3583 a2         1 CLA     -0.112100
     56 C13        81.1605   56.5581   41.0885 a1         1 CLA      0.089200
     57 C14        80.3677   57.7570   40.4849 a3         1 CLA     -0.239100
     58 C15        81.3623   56.6811   42.6555 a2         1 CLA     -0.102200
     59 C16        81.9553   57.8871   43.2628 a2         1 CLA      0.023900
     60 C17        82.4101   57.7211   44.7071 a2         1 CLA     -0.105700
     61 C18        83.2685   58.7864   45.4204 a1         1 CLA      0.206800
     62 C19        84.7198   58.9601   44.7650 a3         1 CLA     -0.280100
     63 C20        82.5386   60.1429   45.3937 a3         1 CLA     -0.280100
     64 NC         74.2429   58.7232   40.4816 nx         1 CLA     -0.309200
     65 MG         75.5655   58.8246   38.7799 mg         1 CLA      0.895000
     66 HMD3       70.5081   55.5464   35.9581 dc         1 CLA      0.064300
     67 HMD2       70.1698   55.9669   37.7047 dc         1 CLA      0.064300
     68 HMD1       70.1582   57.0857   36.5762 dc         1 CLA      0.064300
     69 HMC3       72.3455   59.8965   44.4257 dc         1 CLA      0.052100
     70 HMC2       73.8636   58.9900   44.6939 dc         1 CLA      0.052100
     71 HMC1       73.8771   60.5858   44.1141 dc         1 CLA      0.052100
     72 HMB3       80.6509   61.5593   39.3642 dc         1 CLA      0.063600
     73 HMB2       80.4185   62.5985   40.8109 dc         1 CLA      0.063600
     74 HMB1       81.0652   61.0188   40.9246 dc         1 CLA      0.063600
     75 HMA3       80.9590   58.4611   36.8259 dc         1 CLA      0.058300
     76 HMA2       80.4232   56.9761   36.6207 dc         1 CLA      0.058300
     77 HMA1       80.9064   57.7425   35.1874 dc         1 CLA      0.058300
     78 HED3       77.0230   52.8789   33.4445 dc         1 CLA      0.079300
     79 HED2       77.8382   53.7561   34.6508 dc         1 CLA      0.079300
     80 HED1       76.8132   52.3459   34.9933 dc         1 CLA      0.079300
     81 HBC3       69.2626   56.9085   42.1048 dc         1 CLA      0.016300
     82 HBC2       70.4214   56.7438   40.8798 dc         1 CLA      0.016300
     83 HBC1       70.8998   56.1219   42.5314 dc         1 CLA      0.016300
     84 HBB2       79.8047   61.7790   44.6421 da         1 CLA      0.183000
     85 HBB1       80.5602   60.9972   43.1112 da         1 CLA      0.183000
     86 HBA2       79.0283   58.8254   31.8705 dc         1 CLA      0.029400
     87 HBA1       79.9561   58.7430   33.3364 dc         1 CLA      0.029400
     88 HAC2       70.8208   58.4601   43.2521 dc         1 CLA      0.029300
     89 HAC1       70.3129   58.9174   41.7370 dc         1 CLA      0.029300
     90 HAA2       76.9469   57.9032   33.1692 dc         1 CLA      0.028700
     91 HAA1       77.6962   59.4321   33.6646 dc         1 CLA      0.028700
     92 H203       82.3977   60.4668   44.3876 dc         1 CLA      0.065600
     93 H202       81.5901   59.9220   45.8310 dc         1 CLA      0.065600
     94 H201       83.1012   60.9033   45.9483 dc         1 CLA      0.065600
     95 H193       85.3602   58.1225   44.8923 dc         1 CLA      0.065600
     96 H192       84.6537   59.2121   43.6828 dc         1 CLA      0.065600
     97 H191       85.1378   59.8464   45.3108 dc         1 CLA      0.065600
     98 H172       81.4284   57.5498   45.2265 dc         1 CLA      0.027600
     99 H171       83.0372   56.8330   44.7712 dc         1 CLA      0.027600
    100 H162       82.7381   58.2630   42.6230 dc         1 CLA      0.002900
    101 H161       81.2059   58.6524   43.2216 dc         1 CLA      0.002900
    102 H152       80.4307   56.3582   43.1875 dc         1 CLA      0.029100
    103 H151       81.9897   55.8113   42.8639 dc         1 CLA      0.029100
    104 H143       79.4279   57.7959   41.0401 dc         1 CLA      0.063600
    105 H142       80.9104   58.6303   40.7502 dc         1 CLA      0.063600
    106 H141       80.2068   57.5615   39.3987 dc         1 CLA      0.063600
    107 H122       83.1518   55.7611   40.9546 dc         1 CLA      0.032500
    108 H121       83.1556   57.4148   40.4519 dc         1 CLA      0.032500
    109 H112       82.2968   56.8216   38.3794 dc         1 CLA      0.006600
    110 H111       81.9800   55.1122   38.7768 dc         1 CLA      0.006600
    111 H102       84.2949   54.5929   38.8526 dc         1 CLA      0.024100
    112 H101       84.7691   56.1935   39.0184 dc         1 CLA      0.024100
    113 HHD        71.2762   57.6227   39.3916 da         1 CLA      0.174300
    114 HHC        75.9431   59.9276   43.0507 da         1 CLA      0.136800
    115 HHB        79.7512   60.2378   37.8117 da         1 CLA      0.138300
    116 HBD        74.8716   57.1540   33.5360 dc         1 CLA      0.107700
    117 HAB        77.5965   61.7436   43.6269 da         1 CLA      0.155200
    118 H93        86.5344   55.3342   37.3911 dc         1 CLA      0.069500
    119 H92        86.3349   56.1982   35.8099 dc         1 CLA      0.069500
    120 H91        86.1274   57.0327   37.2866 dc         1 CLA      0.069500
    121 H8         83.9990   56.6812   36.5847 dc         1 CLA      0.029300
    122 H72        82.9484   54.2854   36.5951 dc         1 CLA      0.044400
    123 H71        84.5958   53.7341   36.5927 dc         1 CLA      0.044400
    124 H62        85.1983   54.6732   34.2867 dc         1 CLA      0.015600
    125 H61        83.6823   55.4821   34.4285 dc         1 CLA      0.015600
    126 H52        83.9711   52.3775   34.6190 dc         1 CLA      0.033200
    127 H51        83.9742   53.2394   33.0650 dc         1 CLA      0.033200
    128 H43        81.5867   51.3162   35.1010 dc         1 CLA      0.037000
    129 H42        80.4731   51.7199   33.7726 dc         1 CLA      0.037000
    130 H41        82.0828   51.2324   33.3005 dc         1 CLA      0.037000
    131 H3A        79.1674   59.5869   35.4083 dc         1 CLA      0.041100
    132 H2A        78.2618   56.7831   35.1623 dc         1 CLA      0.083100
    133 H2         81.0124   54.7003   35.1091 da         1 CLA      0.180900
    134 H18        83.3333   58.3638   46.4379 dc         1 CLA     -0.003900
    135 H13        80.6111   55.6174   40.9321 dc         1 CLA      0.019700
    136 H12        80.1447   54.4283   32.5594 dc         1 CLA      0.120400
    137 H11        81.8174   55.1403   32.3285 dc         1 CLA      0.120400
    138 C1         67.8005   61.4916   49.7477 Z1         2 LUT      0.509236
    139 C2         67.9791   62.7526   50.6000 Z2         2 LUT     -0.434695
    140 C3         66.7353   63.6127   50.8361 Z3         2 LUT      0.437453
    141 O3         67.1399   64.8342   51.3088 S1         2 LUT     -0.547129
    142 C4         65.8397   63.6589   49.6661 Z4         2 LUT     -0.468603
    143 C5         66.2544   62.9997   48.3557 Z5         2 LUT      0.279246
    144 C6         67.1478   61.9143   48.3466 Z6         2 LUT     -0.305473
    145 C7         67.8935   61.4337   47.1658 Z7         2 LUT      0.069402
    146 C8         68.9669   62.0091   46.5720 Z8         2 LUT     -0.191631
    147 C9         69.4817   61.6893   45.2529 Z9         2 LUT      0.196698
    148 C10        70.4394   62.5417   44.7113 Y1         2 LUT     -0.208611
    149 C11        71.1356   62.4119   43.4770 Y2         2 LUT      0.030784
    150 C12        72.1734   63.1462   43.0434 Y3         2 LUT     -0.220316
    151 C13        73.1196   62.9908   42.0611 Y4         2 LUT      0.215937
    152 C14        74.2706   63.6873   42.0140 Y5         2 LUT     -0.185793
    153 C15        75.3705   63.6684   41.1133 Y6         2 LUT     -0.057835
    154 C16        66.8509   60.5368   50.5604 Y7         2 LUT     -0.405615
    155 C17        69.2016   60.7856   49.7472 Y7         2 LUT     -0.405615
    156 C18        65.8400   63.8258   47.1915 Y9         2 LUT     -0.369639
    157 C19        68.9307   60.4979   44.4326 W1         2 LUT     -0.333362
    158 C20        72.6197   62.2845   40.7760 W2         2 LUT     -0.323439
    159 C21        86.5613   64.9685   34.3390 Z1         2 LUT      0.406104
    160 C22        87.3083   64.5733   33.0786 Z2         2 LUT     -0.404965
    161 C23        87.3934   65.6034   31.9755 Z3         2 LUT      0.391255
    162 O23        88.2201   65.0987   30.9335 S1         2 LUT     -0.528210
    163 C24        86.0785   66.3574   31.7958 W6         2 LUT     -0.258361
    164 C25        85.0696   66.2967   32.6501 Z5         2 LUT      0.133546
    165 C26        85.1463   65.6005   34.0060 W8         2 LUT     -0.147008
    166 C27        84.4030   66.3694   35.1596 Z7         2 LUT      0.023843
    167 C28        83.4186   65.8073   35.9123 Z8         2 LUT     -0.216987
    168 C29        82.6292   66.3662   37.0183 Z9         2 LUT      0.206524
    169 C30        81.7261   65.5323   37.6303 Y1         2 LUT     -0.215556
    170 C31        80.8133   65.7220   38.7664 Y2         2 LUT      0.025142
    171 C32        79.7889   64.9232   39.2507 Y3         2 LUT     -0.212209
    172 C33        78.8198   65.0840   40.3334 Y4         2 LUT      0.240937
    173 C34        77.6674   64.2537   40.3328 Y5         2 LUT     -0.218862
    174 C35        76.5457   64.2914   41.2553 Y6         2 LUT     -0.023547
    175 C36        87.3933   66.1298   34.9669 Y7         2 LUT     -0.393485
    176 C37        86.4613   63.8177   35.2799 Y7         2 LUT     -0.393485
    177 C38        83.8267   67.1242   32.4040 Y9         2 LUT     -0.387526
    178 C39        82.9526   67.8462   37.3974 W1         2 LUT     -0.322618
    179 C40        79.2841   65.8578   41.5517 W2         2 LUT     -0.358472
    180 H403       79.2484   67.0019   41.4269 R7         2 LUT      0.097720
    181 H402       78.7835   65.5467   42.4655 R7         2 LUT      0.097720
    182 H401       80.3523   65.6657   41.7830 R7         2 LUT      0.097720
    183 H393       82.6662   68.4526   36.5102 R4         2 LUT      0.082505
    184 H392       82.3582   68.1981   38.2884 R4         2 LUT      0.082505
    185 H391       83.9208   68.0689   37.5469 R4         2 LUT      0.082505
    186 H383       82.9644   66.4113   32.1871 R1         2 LUT      0.104030
    187 H382       83.5786   67.7625   33.3151 R1         2 LUT      0.104030
    188 H381       83.8988   67.7223   31.4650 R1         2 LUT      0.104030
    189 H373       85.9022   62.9665   34.8821 T4         2 LUT      0.089537
    190 H372       87.5016   63.4613   35.5141 T4         2 LUT      0.089537
    191 H371       85.8267   64.1768   36.1517 T4         2 LUT      0.089537
    192 H363       88.4705   65.8517   35.0897 T4         2 LUT      0.089537
    193 H362       87.3273   66.9783   34.2726 T4         2 LUT      0.089537
    194 H361       87.0032   66.4120   35.9506 T4         2 LUT      0.089537
    195 H222       88.3597   64.3209   33.1710 U2         2 LUT      0.127376
    196 H221       86.7809   63.7400   32.6526 U2         2 LUT      0.127376
    197 H203       71.5803   62.5872   40.5856 R7         2 LUT      0.087068
    198 H202       73.0456   62.7452   39.8744 R7         2 LUT      0.087068
    199 H201       72.5497   61.1322   40.8101 R7         2 LUT      0.087068
    200 H193       68.6663   59.6153   45.0553 R4         2 LUT      0.089716
    201 H192       68.0521   60.8693   43.8642 R4         2 LUT      0.089716
    202 H191       69.5694   60.1015   43.6677 R4         2 LUT      0.089716
    203 H183       64.8225   64.2150   47.2253 R1         2 LUT      0.094572
    204 H182       66.4062   64.7029   47.1566 R1         2 LUT      0.094572
    205 H181       66.0469   63.3091   46.2369 R1         2 LUT      0.094572
    206 H173       69.5046   60.3232   50.7441 T4         2 LUT      0.093752
    207 H172       69.3396   60.0525   49.0551 T4         2 LUT      0.093752
    208 H171       70.0561   61.4437   49.6568 T4         2 LUT      0.093752
    209 H163       65.8212   60.7794   50.4058 T4         2 LUT      0.093752
    210 H162       67.0785   59.4452   50.2313 T4         2 LUT      0.093752
    211 H161       67.0310   60.6285   51.6247 T4         2 LUT      0.093752
    212 HO3        66.3961   65.0797   51.8776 Q1         2 LUT      0.300121
    213 H8         69.3853   62.8018   47.1384 U7         2 LUT      0.080784
    214 H7         67.2276   60.6386   46.7019 U6         2 LUT      0.042190
    215 H42        64.9611   63.1906   50.0513 U5         2 LUT      0.145166
    216 H41        65.2878   64.6076   49.5967 U5         2 LUT      0.145166
    217 H35        76.5833   64.9082   42.2012 T3         2 LUT      0.077919
    218 H34        77.5902   63.3898   39.6462 T2         2 LUT      0.073626
    219 H32        79.4842   64.0393   38.6027 T1         2 LUT      0.092510
    220 H31        80.9972   66.5854   39.3734 U9         2 LUT      0.070048
    221 H30        81.5481   64.5928   37.1965 U8         2 LUT      0.085442
    222 H3         66.1745   62.9405   51.5779 U3         2 LUT     -0.031596
    223 H28        83.0546   64.7993   35.5738 U7         2 LUT      0.084728
    224 H27        84.5844   67.3520   35.4592 U6         2 LUT      0.087291
    225 H26        84.6708   64.6502   33.7274 Q6         2 LUT      0.075325
    226 H24        86.0665   66.9618   30.8784 Q5         2 LUT      0.094482
    227 H23        88.1213   66.2238   32.5211 U3         2 LUT     -0.024869
    228 H22        68.2072   62.5296   51.5703 U2         2 LUT      0.127376
    229 H21        68.7433   63.2828   50.0911 U2         2 LUT      0.127376
    230 H15        75.2470   63.1650   40.1777 T3         2 LUT      0.093200
    231 H14        74.4280   64.3962   42.7586 T2         2 LUT      0.068865
    232 H12        72.5162   63.8792   43.6841 T1         2 LUT      0.095507
    233 H11        70.8422   61.5501   42.8229 U9         2 LUT      0.068930
    234 H10        70.7366   63.2976   45.4216 U8         2 LUT      0.083911
    235 H1         87.6457   64.6780   30.2364 Q1         2 LUT      0.297311
@<TRIPOS>BOND
    1     6     1 1
    2     7     2 1
    3     8     3 1
    4     9     4 1
    5    11     4 1
    6    12     6 1
    7    13     9 1
    8    16     9 1
    9    25     5 1
   10    25    16 1
   11    26    10 1
   12    26    17 1
   13    27    18 1
   14    28    14 1
   15    28    19 1
   16    29    12 1
   17    30    13 1
   18    31    24 1
   19    32     1 1
   20    32    25 1
   21    33    21 1
   22    33    26 1
   23    34    22 1
   24    34    27 1
   25    35    23 1
   26    35    28 1
   27    36    12 1
   28    36    24 1
   29    37    13 1
   30    37    15 1
   31    38    31 1
   32    39    20 1
   33    39    32 1
   34    40     2 1
   35    40    33 1
   36    41     3 1
   37    41    34 1
   38    42     4 1
   39    42    35 1
   40    43    38 1
   41    44     5 1
   42    44    17 1
   43    44    39 1
   44    45    10 1
   45    45    18 1
   46    45    40 1
   47    46    19 1
   48    46    41 1
   49    47    14 1
   50    47    16 1
   51    47    42 1
   52    48    38 1
   53    49    48 1
   54    50    49 1
   55    51    50 1
   56    52    51 1
   57    53    51 1
   58    54    53 1
   59    55    54 1
   60    56    55 1
   61    57    56 1
   62    58    56 1
   63    59    58 1
   64    60    59 1
   65    61    60 1
   66    62    61 1
   67    63    61 1
   68    64    27 1
   69    64    46 1
   70    65     5 1
   71    65    10 1
   72    65    64 1
   73    65    14 1
   74    66    23 1
   75    67    23 1
   76    68    23 1
   77    69    22 1
   78    70    22 1
   79    71    22 1
   80    72    21 1
   81    73    21 1
   82    74    21 1
   83    75    20 1
   84    76    20 1
   85    77    20 1
   86    78    15 1
   87    79    15 1
   88    80    15 1
   89    81     8 1
   90    82     8 1
   91    83     8 1
   92    84     7 1
   93    85     7 1
   94    86     6 1
   95    87     6 1
   96    88     3 1
   97    89     3 1
   98    90     1 1
   99    91     1 1
  100    92    63 1
  101    93    63 1
  102    94    63 1
  103    95    62 1
  104    96    62 1
  105    97    62 1
  106    98    60 1
  107    99    60 1
  108   100    59 1
  109   101    59 1
  110   102    58 1
  111   103    58 1
  112   104    57 1
  113   105    57 1
  114   106    57 1
  115   107    55 1
  116   108    55 1
  117   109    54 1
  118   110    54 1
  119   111    53 1
  120   112    53 1
  121   113    19 1
  122   114    18 1
  123   115    17 1
  124   116     9 1
  125   117     2 1
  126   118    52 1
  127   119    52 1
  128   120    52 1
  129   121    51 1
  130   122    50 1
  131   123    50 1
  132   124    49 1
  133   125    49 1
  134   126    48 1
  135   127    48 1
  136   128    43 1
  137   129    43 1
  138   130    43 1
  139   131    39 1
  140   132    32 1
  141   133    31 1
  142   134    61 1
  143   135    56 1
  144   136    24 1
  145   137    24 1
  146   139   138 1
  147   140   139 1
  148   141   140 1
  149   142   140 1
  150   143   142 1
  151   144   138 1
  152   144   143 1
  153   145   144 1
  154   146   145 1
  155   147   146 1
  156   148   147 1
  157   149   148 1
  158   150   149 1
  159   151   150 1
  160   152   151 1
  161   153   152 1
  162   154   138 1
  163   155   138 1
  164   156   143 1
  165   157   147 1
  166   158   151 1
  167   160   159 1
  168   161   160 1
  169   162   161 1
  170   163   161 1
  171   164   163 1
  172   165   159 1
  173   165   164 1
  174   166   165 1
  175   167   166 1
  176   168   167 1
  177   169   168 1
  178   170   169 1
  179   171   170 1
  180   172   171 1
  181   173   172 1
  182   174   153 1
  183   174   173 1
  184   175   159 1
  185   176   159 1
  186   177   164 1
  187   178   168 1
  188   179   172 1
  189   180   179 1
  190   181   179 1
  191   182   179 1
  192   183   178 1
  193   184   178 1
  194   185   178 1
  195   186   177 1
  196   187   177 1
  197   188   177 1
  198   189   176 1
  199   190   176 1
  200   191   176 1
  201   192   175 1
  202   193   175 1
  203   194   175 1
  204   195   160 1
  205   196   160 1
  206   197   158 1
  207   198   158 1
  208   199   158 1
  209   200   157 1
  210   201   157 1
  211   202   157 1
  212   203   156 1
  213   204   156 1
  214   205   156 1
  215   206   155 1
  216   207   155 1
  217   208   155 1
  218   209   154 1
  219   210   154 1
  220   211   154 1
  221   212   141 1
  222   213   146 1
  223   214   145 1
  224   215   142 1
  225   216   142 1
  226   217   174 1
  227   218   173 1
  228   219   171 1
  229   220   170 1
  230   221   169 1
  231   222   140 1
  232   223   167 1
  233   224   166 1
  234   225   165 1
  235   226   163 1
  236   227   161 1
  237   228   139 1
  238   229   139 1
  239   230   153 1
  240   231   152 1
  241   232   150 1
  242   233   149 1
  243   234   148 1
  244   235   162 1
  245   65    153 1
  246   65    174 1
@<TRIPOS>SUBSTRUCTURE
      1 CLA               1 ****               0 ****  **** 
      2 LUT             138 ****               0 ****  **** 
