@<TRIPOS>MOLECULE
Cpptraj generated mol2 file.
  235   246     2     0     0
SMALL
USER_CHARGES


@<TRIPOS>ATOM
      1 CAA        79.9703   58.3809   35.0257 a2         1 CLA     -0.055900
      2 CAB        80.4426   62.4905   43.5106 c8         1 CLA     -0.148500
      3 CAC        73.2397   58.9720   43.6099 a2         1 CLA     -0.012600
      4 CAD        75.6394   55.8886   36.2430 ck         1 CLA      0.398800
      5 NA         78.9608   58.9259   38.1999 ns         1 CLA     -0.225500
      6 CBA        81.1310   57.9427   33.9869 a2         1 CLA     -0.135000
      7 CBB        81.6673   62.7587   44.0544 c0         1 CLA     -0.395200
      8 CBC        73.4608   57.5247   44.1770 a3         1 CLA     -0.037700
      9 CBD        77.1579   56.3214   35.8636 a1         1 CLA     -0.053900
     10 NB         79.0067   60.6500   40.6258 nm         1 CLA     -0.295700
     11 OBD        74.9210   55.0782   35.6066 o2         1 CLA     -0.494600
     12 CGA        81.5128   56.4756   33.8144 c4         1 CLA      0.827000
     13 CGD        78.0872   55.1947   35.6573 c4         1 CLA      0.655300
     14 ND         76.2030   58.1241   38.9515 nm         1 CLA     -0.291600
     15 CED        78.9697   53.2101   36.8350 a3         1 CLA      0.005400
     16 CHA        77.5562   57.3391   36.9586 cs         1 CLA     -0.123800
     17 CHB        80.8709   60.1185   39.1526 aa         1 CLA     -0.291900
     18 CHC        77.7662   61.0540   42.6862 aa         1 CLA     -0.090400
     19 CHD        74.4045   58.2369   40.6685 aa         1 CLA     -0.052000
     20 CMA        82.2429   57.4983   37.9361 a3         1 CLA     -0.230700
     21 CMB        82.4200   62.2847   40.9250 a3         1 CLA     -0.180800
     22 CMC        75.6695   60.6557   45.0739 a3         1 CLA     -0.134000
     23 CMD        72.8556   56.4376   38.6419 a3         1 CLA     -0.141100
     24 C1         82.5610   54.6219   34.9856 a2         1 CLA      0.023000
     25 C1A        78.7578   58.0314   37.2161 ac         1 CLA     -0.015100
     26 C1B        80.3253   60.8134   40.2411 cr         1 CLA      0.054700
     27 C1C        76.5615   60.4130   42.5308 cn         1 CLA     -0.005600
     28 C1D        74.9255   57.8036   39.3905 ap         1 CLA     -0.047300
     29 O1A        81.1815   55.8010   32.8661 o2         1 CLA     -0.610800
     30 O1D        78.8402   55.0914   34.7160 o2         1 CLA     -0.558200
     31 C2         83.2488   54.3597   36.3171 c8         1 CLA     -0.325100
     32 C2A        80.0054   57.7136   36.4445 a1         1 CLA      0.098600
     33 C2B        81.0360   61.6958   41.1546 cb         1 CLA      0.088500
     34 C2C        75.5442   60.2000   43.6253 cb         1 CLA      0.053700
     35 C2D        74.2542   56.8945   38.4706 cb         1 CLA      0.058900
     36 O2A        82.1764   56.0476   34.9304 o1         1 CLA     -0.437200
     37 O2D        78.0254   54.3344   36.7113 o1         1 CLA     -0.357600
     38 C3         84.2019   53.4522   36.5025 c5         1 CLA      0.031200
     39 C3A        81.1626   58.4049   37.2780 a1         1 CLA      0.166800
     40 C3B        80.1561   61.8943   42.2084 cb         1 CLA      0.035000
     41 C3C        74.5499   59.4464   42.9459 cb         1 CLA     -0.089900
     42 C3D        75.3049   56.5937   37.4813 cb         1 CLA     -0.035900
     43 C4         83.9079   51.9827   36.7434 a3         1 CLA     -0.053300
     44 C4A        80.2937   59.2096   38.2847 ac         1 CLA      0.001800
     45 C4B        78.9203   61.1960   41.8934 cn         1 CLA     -0.020900
     46 C4C        75.0354   59.0857   41.6137 cr         1 CLA     -0.044400
     47 C4D        76.4367   57.4185   37.8003 c6         1 CLA     -0.046000
     48 C5         85.7373   53.8605   36.2884 a2         1 CLA     -0.070400
     49 C6         86.0770   55.1675   36.9874 a2         1 CLA      0.043900
     50 C7         86.3426   55.1003   38.4798 a2         1 CLA     -0.150000
     51 C8         86.5966   56.4187   39.2228 a1         1 CLA      0.064200
     52 C9         87.8292   57.2129   38.6911 a3         1 CLA     -0.259300
     53 C10        86.7974   56.0929   40.7482 a2         1 CLA     -0.071900
     54 C11        87.0326   57.2892   41.7432 a2         1 CLA      0.014500
     55 C12        87.2616   56.6956   43.2116 a2         1 CLA     -0.112100
     56 C13        88.7204   56.8204   43.6631 a1         1 CLA      0.089200
     57 C14        89.6663   55.9929   42.8418 a3         1 CLA     -0.239100
     58 C15        88.8650   56.5076   45.1519 a2         1 CLA     -0.102200
     59 C16        88.3132   57.5243   46.1578 a2         1 CLA      0.023900
     60 C17        87.9456   56.8755   47.5253 a2         1 CLA     -0.105700
     61 C18        87.6450   57.8742   48.6387 a1         1 CLA      0.206800
     62 C19        86.1557   58.4355   48.4907 a3         1 CLA     -0.280100
     63 C20        87.7705   57.2721   50.1029 a3         1 CLA     -0.280100
     64 NC         76.2071   59.7297   41.3721 nx         1 CLA     -0.309200
     65 MG         77.5401   59.4648   39.7631 mg         1 CLA      0.895000
     66 HMD3       72.7546   55.7499   37.7861 dc         1 CLA      0.064300
     67 HMD2       72.7640   55.9630   39.5372 dc         1 CLA      0.064300
     68 HMD1       72.0769   57.2205   38.5707 dc         1 CLA      0.064300
     69 HMC3       75.0460   60.0665   45.8034 dc         1 CLA      0.052100
     70 HMC2       76.6510   60.4324   45.4787 dc         1 CLA      0.052100
     71 HMC1       75.3613   61.6951   45.2559 dc         1 CLA      0.052100
     72 HMB3       82.4889   63.3263   41.3566 dc         1 CLA      0.063600
     73 HMB2       83.2557   61.5656   41.1300 dc         1 CLA      0.063600
     74 HMB1       82.3862   62.4449   39.8394 dc         1 CLA      0.063600
     75 HMA3       82.8170   56.9794   37.1631 dc         1 CLA      0.058300
     76 HMA2       82.8722   58.1161   38.4992 dc         1 CLA      0.058300
     77 HMA1       81.6187   56.7711   38.4592 dc         1 CLA      0.058300
     78 HED3       78.7432   52.3803   36.1264 dc         1 CLA      0.079300
     79 HED2       80.0032   53.4603   36.6201 dc         1 CLA      0.079300
     80 HED1       79.0672   52.8469   37.8911 dc         1 CLA      0.079300
     81 HBC3       74.3782   57.5734   44.7848 dc         1 CLA      0.016300
     82 HBC2       72.6851   57.2214   44.8046 dc         1 CLA      0.016300
     83 HBC1       73.6311   56.8005   43.3999 dc         1 CLA      0.016300
     84 HBB2       81.6920   63.2078   45.0368 da         1 CLA      0.183000
     85 HBB1       82.5851   62.5120   43.6165 da         1 CLA      0.183000
     86 HBA2       81.0375   58.4848   33.0426 dc         1 CLA      0.029400
     87 HBA1       82.0144   58.4833   34.4145 dc         1 CLA      0.029400
     88 HAC2       73.0021   59.5708   44.4726 dc         1 CLA      0.029300
     89 HAC1       72.4036   59.0033   42.9235 dc         1 CLA      0.029300
     90 HAA2       79.0803   58.0964   34.4550 dc         1 CLA      0.028700
     91 HAA1       80.0992   59.4115   35.0737 dc         1 CLA      0.028700
     92 H203       87.5589   58.0133   50.9017 dc         1 CLA      0.065600
     93 H202       87.2116   56.3701   50.2493 dc         1 CLA      0.065600
     94 H201       88.8274   56.9521   50.2003 dc         1 CLA      0.065600
     95 H193       86.0471   58.8793   47.5167 dc         1 CLA      0.065600
     96 H192       85.4521   57.5955   48.5694 dc         1 CLA      0.065600
     97 H191       85.8938   59.1452   49.2712 dc         1 CLA      0.065600
     98 H172       87.1312   56.2279   47.5340 dc         1 CLA      0.027600
     99 H171       88.8002   56.3709   47.8889 dc         1 CLA      0.027600
    100 H162       89.0713   58.2476   46.3277 dc         1 CLA      0.002900
    101 H161       87.4203   57.9336   45.7427 dc         1 CLA      0.002900
    102 H152       88.2055   55.6375   45.2703 dc         1 CLA      0.029100
    103 H151       89.8667   56.3084   45.5531 dc         1 CLA      0.029100
    104 H143       90.7078   56.2246   43.2624 dc         1 CLA      0.063600
    105 H142       89.6675   54.8942   43.1053 dc         1 CLA      0.063600
    106 H141       89.7612   56.1704   41.7822 dc         1 CLA      0.063600
    107 H122       86.6849   57.3543   43.7505 dc         1 CLA      0.032500
    108 H121       86.7759   55.7168   43.3565 dc         1 CLA      0.032500
    109 H112       87.8504   57.9120   41.3661 dc         1 CLA      0.006600
    110 H111       86.0638   57.7897   41.6425 dc         1 CLA      0.006600
    111 H102       86.0963   55.4101   41.1094 dc         1 CLA      0.024100
    112 H101       87.7486   55.5985   40.6657 dc         1 CLA      0.024100
    113 HHD        73.4996   57.8458   41.1370 da         1 CLA      0.174300
    114 HHC        77.8652   61.4404   43.6872 da         1 CLA      0.136800
    115 HHB        81.9170   60.3049   39.0148 da         1 CLA      0.138300
    116 HBD        77.0705   56.7972   34.8382 dc         1 CLA      0.107700
    117 HAB        79.6268   62.7121   44.1703 da         1 CLA      0.155200
    118 H93        88.7988   56.6358   38.9403 dc         1 CLA      0.069500
    119 H92        87.8186   57.4125   37.6742 dc         1 CLA      0.069500
    120 H91        87.7825   58.1766   39.2295 dc         1 CLA      0.069500
    121 H8         85.7434   57.0175   39.0242 dc         1 CLA      0.029300
    122 H72        85.3893   54.6809   38.8999 dc         1 CLA      0.044400
    123 H71        87.1585   54.4401   38.6876 dc         1 CLA      0.044400
    124 H62        87.0277   55.5487   36.5301 dc         1 CLA      0.015600
    125 H61        85.3275   55.9435   36.7423 dc         1 CLA      0.015600
    126 H52        86.3527   53.0537   36.5474 dc         1 CLA      0.033200
    127 H51        85.7548   53.8939   35.1396 dc         1 CLA      0.033200
    128 H43        84.0872   51.4009   35.8381 dc         1 CLA      0.037000
    129 H42        84.4690   51.5095   37.5320 dc         1 CLA      0.037000
    130 H41        82.8464   51.8958   36.9177 dc         1 CLA      0.037000
    131 H3A        81.6845   59.1819   36.6541 dc         1 CLA      0.041100
    132 H2A        80.0820   56.6214   36.5111 dc         1 CLA      0.083100
    133 H2         82.9214   54.9017   37.1770 da         1 CLA      0.180900
    134 H18        88.3675   58.6793   48.6809 dc         1 CLA     -0.003900
    135 H13        88.9113   57.8971   43.5706 dc         1 CLA      0.019700
    136 H12        81.7022   54.0066   34.8333 dc         1 CLA      0.120400
    137 H11        83.3515   54.4208   34.3142 dc         1 CLA      0.120400
    138 C1         68.9740   62.3473   50.6726 Z1         2 LUT      0.509236
    139 C2         67.4758   62.0612   50.9254 Z2         2 LUT     -0.434695
    140 C3         66.6688   63.3270   51.3463 Z3         2 LUT      0.437453
    141 O3         66.8497   63.7117   52.7151 S1         2 LUT     -0.547129
    142 C4         67.0633   64.5650   50.4855 Z4         2 LUT     -0.468603
    143 C5         68.0388   64.2532   49.2993 Z5         2 LUT      0.279246
    144 C6         68.9723   63.2513   49.4503 Z6         2 LUT     -0.305473
    145 C7         69.5834   62.6885   48.2539 Z7         2 LUT      0.069402
    146 C8         70.8108   62.8658   47.6508 Z8         2 LUT     -0.191631
    147 C9         71.2800   62.3757   46.3561 Z9         2 LUT      0.196698
    148 C10        72.3138   63.0890   45.8760 Y1         2 LUT     -0.208611
    149 C11        72.9891   63.0185   44.5726 Y2         2 LUT      0.030784
    150 C12        74.0453   63.8255   44.2035 Y3         2 LUT     -0.220316
    151 C13        74.8880   63.6191   43.0001 Y4         2 LUT      0.215937
    152 C14        75.9478   64.4192   42.7921 Y5         2 LUT     -0.185793
    153 C15        76.9847   64.4118   41.7549 Y6         2 LUT     -0.057835
    154 C16        69.7571   60.9954   50.4907 Y7         2 LUT     -0.405615
    155 C17        69.6952   62.9634   51.8825 Y7         2 LUT     -0.405615
    156 C18        67.5887   64.7970   47.9627 Y9         2 LUT     -0.369639
    157 C19        70.5579   61.2522   45.6816 W1         2 LUT     -0.333362
    158 C20        74.2880   62.8712   41.7860 W2         2 LUT     -0.323439
    159 C21        88.6779   65.5323   35.1981 Z1         2 LUT      0.406104
    160 C22        89.4098   65.0467   33.9365 Z2         2 LUT     -0.404965
    161 C23        89.3275   65.9626   32.7111 Z3         2 LUT      0.391255
    162 O23        89.7955   65.1007   31.6703 S1         2 LUT     -0.528210
    163 C24        88.0683   66.7104   32.6378 W6         2 LUT     -0.258361
    164 C25        87.1204   66.7417   33.5780 Z5         2 LUT      0.133546
    165 C26        87.1479   65.8988   34.8561 W8         2 LUT     -0.147008
    166 C27        86.4721   66.5058   36.0615 Z7         2 LUT      0.023843
    167 C28        85.2662   66.0966   36.5364 Z8         2 LUT     -0.216987
    168 C29        84.5616   66.4724   37.8557 Z9         2 LUT      0.206524
    169 C30        83.3325   65.8762   38.1184 Y1         2 LUT     -0.215556
    170 C31        82.4444   66.1695   39.2185 Y2         2 LUT      0.025142
    171 C32        81.3365   65.5507   39.6516 Y3         2 LUT     -0.212209
    172 C33        80.4398   65.8488   40.7570 Y4         2 LUT      0.240937
    173 C34        79.2864   65.0765   40.8293 Y5         2 LUT     -0.218862
    174 C35        78.1286   65.1565   41.7372 Y6         2 LUT     -0.023547
    175 C36        89.5072   66.6983   35.7922 Y7         2 LUT     -0.393485
    176 C37        88.7519   64.3970   36.2098 Y7         2 LUT     -0.393485
    177 C38        85.8972   67.6656   33.4062 Y9         2 LUT     -0.387526
    178 C39        85.1884   67.5392   38.6590 W1         2 LUT     -0.322618
    179 C40        80.7763   67.1214   41.5125 W2         2 LUT     -0.358472
    180 H403       81.7489   67.0313   41.9485 R7         2 LUT      0.097720
    181 H402       80.8140   68.0936   40.9672 R7         2 LUT      0.097720
    182 H401       80.1448   67.2664   42.3807 R7         2 LUT      0.097720
    183 H393       85.3802   68.2981   37.9041 R4         2 LUT      0.082505
    184 H392       84.5714   67.8607   39.4458 R4         2 LUT      0.082505
    185 H391       86.1758   67.2758   39.1188 R4         2 LUT      0.082505
    186 H383       84.9875   67.0637   33.5080 R1         2 LUT      0.104030
    187 H382       85.8138   68.3570   34.2669 R1         2 LUT      0.104030
    188 H381       85.8035   68.1162   32.4382 R1         2 LUT      0.104030
    189 H373       89.7657   64.0096   36.3833 T4         2 LUT      0.089537
    190 H372       88.3661   64.8232   37.1831 T4         2 LUT      0.089537
    191 H371       88.1879   63.5508   35.8907 T4         2 LUT      0.089537
    192 H363       90.4937   66.2968   35.9623 T4         2 LUT      0.089537
    193 H362       89.6455   67.5745   35.1474 T4         2 LUT      0.089537
    194 H361       89.0456   67.1223   36.6702 T4         2 LUT      0.089537
    195 H222       90.4595   65.0260   34.1059 U2         2 LUT      0.127376
    196 H221       88.9819   64.1159   33.6999 U2         2 LUT      0.127376
    197 H203       74.0848   63.4911   40.9629 R7         2 LUT      0.087068
    198 H202       75.1417   62.3288   41.3990 R7         2 LUT      0.087068
    199 H201       73.5863   62.1347   41.9725 R7         2 LUT      0.087068
    200 H193       69.9487   60.6452   46.3031 R4         2 LUT      0.089716
    201 H192       70.0367   61.5848   44.7803 R4         2 LUT      0.089716
    202 H191       71.2250   60.5987   45.2220 R4         2 LUT      0.089716
    203 H183       67.4794   64.0530   47.2044 R1         2 LUT      0.094572
    204 H182       66.6675   65.3854   48.0937 R1         2 LUT      0.094572
    205 H181       68.1659   65.6347   47.6109 R1         2 LUT      0.094572
    206 H173       69.1323   63.8003   52.2448 T4         2 LUT      0.093752
    207 H172       69.8906   62.2523   52.6402 T4         2 LUT      0.093752
    208 H171       70.7197   63.3778   51.7608 T4         2 LUT      0.093752
    209 H163       69.6288   60.3827   51.4237 T4         2 LUT      0.093752
    210 H162       69.4130   60.4045   49.6640 T4         2 LUT      0.093752
    211 H161       70.8221   61.1550   50.2578 T4         2 LUT      0.093752
    212 HO3        66.5849   63.0862   53.3638 Q1         2 LUT      0.300121
    213 H8         71.4201   63.5683   48.2761 U7         2 LUT      0.080784
    214 H7         68.8446   62.0240   47.7758 U6         2 LUT      0.042190
    215 H42        66.1733   65.0571   50.1400 U5         2 LUT      0.145166
    216 H41        67.4835   65.3046   51.0951 U5         2 LUT      0.145166
    217 H35        78.2180   65.7073   42.6365 T3         2 LUT      0.077919
    218 H34        79.1310   64.3493   39.9967 T2         2 LUT      0.073626
    219 H32        81.1664   64.6481   39.0595 T1         2 LUT      0.092510
    220 H31        82.8682   66.9576   39.8678 U9         2 LUT      0.070048
    221 H30        82.9567   65.1633   37.4335 U8         2 LUT      0.085442
    222 H3         65.6799   63.0052   51.1914 U3         2 LUT     -0.031596
    223 H28        84.6913   65.4064   35.8825 U7         2 LUT      0.084728
    224 H27        87.0414   67.2005   36.6256 U6         2 LUT      0.087291
    225 H26        86.7351   64.8776   34.6387 Q6         2 LUT      0.075325
    226 H24        87.9717   67.3051   31.6959 Q5         2 LUT      0.094482
    227 H23        90.0780   66.7313   33.0450 U3         2 LUT     -0.024869
    228 H22        66.9432   61.7982   49.9432 U2         2 LUT      0.127376
    229 H21        67.3467   61.2126   51.5204 U2         2 LUT      0.127376
    230 H15        76.8966   63.6111   41.1222 T3         2 LUT      0.093200
    231 H14        75.9879   65.1721   43.5083 T2         2 LUT      0.068865
    232 H12        74.3675   64.5394   44.9969 T1         2 LUT      0.095507
    233 H11        72.8064   62.1701   43.9175 U9         2 LUT      0.068930
    234 H10        72.6373   64.0013   46.3546 U8         2 LUT      0.083911
    235 H1         89.8014   65.6849   30.8843 Q1         2 LUT      0.297311
@<TRIPOS>BOND
    1     6     1 1
    2     7     2 1
    3     8     3 1
    4     9     4 1
    5    11     4 1
    6    12     6 1
    7    13     9 1
    8    16     9 1
    9    25     5 1
   10    25    16 1
   11    26    10 1
   12    26    17 1
   13    27    18 1
   14    28    14 1
   15    28    19 1
   16    29    12 1
   17    30    13 1
   18    31    24 1
   19    32     1 1
   20    32    25 1
   21    33    21 1
   22    33    26 1
   23    34    22 1
   24    34    27 1
   25    35    23 1
   26    35    28 1
   27    36    12 1
   28    36    24 1
   29    37    13 1
   30    37    15 1
   31    38    31 1
   32    39    20 1
   33    39    32 1
   34    40     2 1
   35    40    33 1
   36    41     3 1
   37    41    34 1
   38    42     4 1
   39    42    35 1
   40    43    38 1
   41    44     5 1
   42    44    17 1
   43    44    39 1
   44    45    10 1
   45    45    18 1
   46    45    40 1
   47    46    19 1
   48    46    41 1
   49    47    14 1
   50    47    16 1
   51    47    42 1
   52    48    38 1
   53    49    48 1
   54    50    49 1
   55    51    50 1
   56    52    51 1
   57    53    51 1
   58    54    53 1
   59    55    54 1
   60    56    55 1
   61    57    56 1
   62    58    56 1
   63    59    58 1
   64    60    59 1
   65    61    60 1
   66    62    61 1
   67    63    61 1
   68    64    27 1
   69    64    46 1
   70    65     5 1
   71    65    10 1
   72    65    64 1
   73    65    14 1
   74    66    23 1
   75    67    23 1
   76    68    23 1
   77    69    22 1
   78    70    22 1
   79    71    22 1
   80    72    21 1
   81    73    21 1
   82    74    21 1
   83    75    20 1
   84    76    20 1
   85    77    20 1
   86    78    15 1
   87    79    15 1
   88    80    15 1
   89    81     8 1
   90    82     8 1
   91    83     8 1
   92    84     7 1
   93    85     7 1
   94    86     6 1
   95    87     6 1
   96    88     3 1
   97    89     3 1
   98    90     1 1
   99    91     1 1
  100    92    63 1
  101    93    63 1
  102    94    63 1
  103    95    62 1
  104    96    62 1
  105    97    62 1
  106    98    60 1
  107    99    60 1
  108   100    59 1
  109   101    59 1
  110   102    58 1
  111   103    58 1
  112   104    57 1
  113   105    57 1
  114   106    57 1
  115   107    55 1
  116   108    55 1
  117   109    54 1
  118   110    54 1
  119   111    53 1
  120   112    53 1
  121   113    19 1
  122   114    18 1
  123   115    17 1
  124   116     9 1
  125   117     2 1
  126   118    52 1
  127   119    52 1
  128   120    52 1
  129   121    51 1
  130   122    50 1
  131   123    50 1
  132   124    49 1
  133   125    49 1
  134   126    48 1
  135   127    48 1
  136   128    43 1
  137   129    43 1
  138   130    43 1
  139   131    39 1
  140   132    32 1
  141   133    31 1
  142   134    61 1
  143   135    56 1
  144   136    24 1
  145   137    24 1
  146   139   138 1
  147   140   139 1
  148   141   140 1
  149   142   140 1
  150   143   142 1
  151   144   138 1
  152   144   143 1
  153   145   144 1
  154   146   145 1
  155   147   146 1
  156   148   147 1
  157   149   148 1
  158   150   149 1
  159   151   150 1
  160   152   151 1
  161   153   152 1
  162   154   138 1
  163   155   138 1
  164   156   143 1
  165   157   147 1
  166   158   151 1
  167   160   159 1
  168   161   160 1
  169   162   161 1
  170   163   161 1
  171   164   163 1
  172   165   159 1
  173   165   164 1
  174   166   165 1
  175   167   166 1
  176   168   167 1
  177   169   168 1
  178   170   169 1
  179   171   170 1
  180   172   171 1
  181   173   172 1
  182   174   153 1
  183   174   173 1
  184   175   159 1
  185   176   159 1
  186   177   164 1
  187   178   168 1
  188   179   172 1
  189   180   179 1
  190   181   179 1
  191   182   179 1
  192   183   178 1
  193   184   178 1
  194   185   178 1
  195   186   177 1
  196   187   177 1
  197   188   177 1
  198   189   176 1
  199   190   176 1
  200   191   176 1
  201   192   175 1
  202   193   175 1
  203   194   175 1
  204   195   160 1
  205   196   160 1
  206   197   158 1
  207   198   158 1
  208   199   158 1
  209   200   157 1
  210   201   157 1
  211   202   157 1
  212   203   156 1
  213   204   156 1
  214   205   156 1
  215   206   155 1
  216   207   155 1
  217   208   155 1
  218   209   154 1
  219   210   154 1
  220   211   154 1
  221   212   141 1
  222   213   146 1
  223   214   145 1
  224   215   142 1
  225   216   142 1
  226   217   174 1
  227   218   173 1
  228   219   171 1
  229   220   170 1
  230   221   169 1
  231   222   140 1
  232   223   167 1
  233   224   166 1
  234   225   165 1
  235   226   163 1
  236   227   161 1
  237   228   139 1
  238   229   139 1
  239   230   153 1
  240   231   152 1
  241   232   150 1
  242   233   149 1
  243   234   148 1
  244   235   162 1
  245   65    153 1
  246   65    174 1
@<TRIPOS>SUBSTRUCTURE
      1 CLA               1 ****               0 ****  **** 
      2 LUT             138 ****               0 ****  **** 
