@<TRIPOS>MOLECULE
Cpptraj generated mol2 file.
  235   246     2     0     0
SMALL
USER_CHARGES


@<TRIPOS>ATOM
      1 CAA        78.8175   57.6242   35.1973 a2         1 CLA     -0.055900
      2 CAB        78.1335   60.8512   44.4775 c8         1 CLA     -0.148500
      3 CAC        71.4327   56.7122   43.1928 a2         1 CLA     -0.012600
      4 CAD        74.7526   54.7326   36.1339 ck         1 CLA      0.398800
      5 NA         77.5563   57.9574   38.5418 ns         1 CLA     -0.225500
      6 CBA        80.1828   57.4164   34.4355 a2         1 CLA     -0.135000
      7 CBB        79.3178   60.9246   45.0729 c0         1 CLA     -0.395200
      8 CBC        71.6572   55.1500   43.3970 a3         1 CLA     -0.037700
      9 CBD        76.1550   55.4634   35.9856 a1         1 CLA     -0.053900
     10 NB         77.1160   59.3557   41.1799 nm         1 CLA     -0.295700
     11 OBD        74.2907   53.8909   35.3283 o2         1 CLA     -0.494600
     12 CGA        80.7215   56.0816   34.1565 c4         1 CLA      0.827000
     13 CGD        77.1866   54.4309   35.6700 c4         1 CLA      0.655300
     14 ND         74.8155   56.8385   39.0744 nm         1 CLA     -0.291600
     15 CED        77.7506   52.1161   35.8740 a3         1 CLA      0.005400
     16 CHA        76.3745   56.3950   37.1705 cs         1 CLA     -0.123800
     17 CHB        79.1259   59.4522   39.7482 aa         1 CLA     -0.291900
     18 CHC        75.7355   59.3568   43.1832 aa         1 CLA     -0.090400
     19 CHD        72.7752   56.5932   40.4965 aa         1 CLA     -0.052000
     20 CMA        80.9030   57.2471   38.3519 a3         1 CLA     -0.230700
     21 CMB        80.1600   61.3849   41.9937 a3         1 CLA     -0.180800
     22 CMC        73.3459   58.4783   45.1236 a3         1 CLA     -0.134000
     23 CMD        71.8742   54.6120   38.2269 a3         1 CLA     -0.141100
     24 C1         81.6741   54.1823   35.2835 a2         1 CLA      0.023000
     25 C1A        77.5427   57.1330   37.4450 ac         1 CLA     -0.015100
     26 C1B        78.3766   59.8341   40.8816 cr         1 CLA      0.054700
     27 C1C        74.6660   58.4648   42.8442 cn         1 CLA     -0.005600
     28 C1D        73.5099   56.3218   39.2937 ap         1 CLA     -0.047300
     29 O1A        80.7062   55.4787   33.0946 o2         1 CLA     -0.610800
     30 O1D        78.1439   54.4955   34.9013 o2         1 CLA     -0.558200
     31 C2         81.3164   53.6454   36.6953 c8         1 CLA     -0.325100
     32 C2A        78.8918   57.1913   36.7572 a1         1 CLA      0.098600
     33 C2B        78.8338   60.6465   41.9958 cb         1 CLA      0.088500
     34 C2C        73.5374   58.0457   43.6988 cb         1 CLA      0.053700
     35 C2D        73.1156   55.4340   38.2657 cb         1 CLA      0.058900
     36 O2A        81.2053   55.5976   35.3276 o1         1 CLA     -0.437200
     37 O2D        76.9160   53.2659   36.3568 o1         1 CLA     -0.357600
     38 C3         82.0316   52.7272   37.3337 c5         1 CLA      0.031200
     39 C3A        79.7554   58.0472   37.6949 a1         1 CLA      0.166800
     40 C3B        77.9626   60.4986   43.0461 cb         1 CLA      0.035000
     41 C3C        72.7045   57.3899   42.8351 cb         1 CLA     -0.089900
     42 C3D        74.2278   55.4114   37.3640 cb         1 CLA     -0.035900
     43 C4         81.6570   51.2830   37.2319 a3         1 CLA     -0.053300
     44 C4A        78.7657   58.5625   38.7089 ac         1 CLA      0.001800
     45 C4B        76.8282   59.7932   42.4341 cn         1 CLA     -0.020900
     46 C4C        73.2985   57.2757   41.6151 cr         1 CLA     -0.044400
     47 C4D        75.2356   56.2611   37.9370 c6         1 CLA     -0.046000
     48 C5         82.9994   53.1885   38.3996 a2         1 CLA     -0.070400
     49 C6         83.6826   54.5659   38.4073 a2         1 CLA      0.043900
     50 C7         84.6711   54.7370   39.6008 a2         1 CLA     -0.150000
     51 C8         85.5408   56.1065   39.5757 a1         1 CLA      0.064200
     52 C9         86.8516   55.9969   38.7976 a3         1 CLA     -0.259300
     53 C10        85.6786   56.5979   41.0201 a2         1 CLA     -0.071900
     54 C11        84.3515   57.1324   41.6879 a2         1 CLA      0.014500
     55 C12        84.6452   58.0484   42.8881 a2         1 CLA     -0.112100
     56 C13        85.4109   57.3641   44.0538 a1         1 CLA      0.089200
     57 C14        84.7190   56.2307   44.7782 a3         1 CLA     -0.239100
     58 C15        85.9948   58.4955   44.9757 a2         1 CLA     -0.102200
     59 C16        85.0489   59.3848   45.7858 a2         1 CLA      0.023900
     60 C17        85.6386   59.7907   47.1625 a2         1 CLA     -0.105700
     61 C18        84.9422   60.9894   47.8994 a1         1 CLA      0.206800
     62 C19        83.3688   60.9400   48.0355 a3         1 CLA     -0.280100
     63 C20        85.6463   61.3109   49.2480 a3         1 CLA     -0.280100
     64 NC         74.4958   57.9353   41.6181 nx         1 CLA     -0.309200
     65 MG         75.8521   58.1279   40.0027 mg         1 CLA      0.895000
     66 HMD3       71.7693   53.9085   39.0201 dc         1 CLA      0.064300
     67 HMD2       71.0327   55.2990   38.2980 dc         1 CLA      0.064300
     68 HMD1       71.9538   54.0208   37.3686 dc         1 CLA      0.064300
     69 HMC3       72.9941   57.5581   45.5966 dc         1 CLA      0.052100
     70 HMC2       74.2260   58.9490   45.5214 dc         1 CLA      0.052100
     71 HMC1       72.5444   59.1491   45.3107 dc         1 CLA      0.052100
     72 HMB3       80.3799   61.6016   41.0062 dc         1 CLA      0.063600
     73 HMB2       80.1712   62.3001   42.6080 dc         1 CLA      0.063600
     74 HMB1       80.9384   60.7252   42.3845 dc         1 CLA      0.063600
     75 HMA3       81.5300   57.9699   38.8147 dc         1 CLA      0.058300
     76 HMA2       80.5284   56.4694   39.0677 dc         1 CLA      0.058300
     77 HMA1       81.6095   56.7224   37.6797 dc         1 CLA      0.058300
     78 HED3       77.5127   52.0824   34.7916 dc         1 CLA      0.079300
     79 HED2       78.8163   52.1988   35.9866 dc         1 CLA      0.079300
     80 HED1       77.4338   51.1338   36.2259 dc         1 CLA      0.079300
     81 HBC3       72.0614   54.7356   42.4667 dc         1 CLA      0.016300
     82 HBC2       72.4423   55.0583   44.1965 dc         1 CLA      0.016300
     83 HBC1       70.6946   54.7341   43.7047 dc         1 CLA      0.016300
     84 HBB2       79.5094   60.8182   46.1026 da         1 CLA      0.183000
     85 HBB1       80.2017   60.8184   44.4687 da         1 CLA      0.183000
     86 HBA2       80.1574   58.0184   33.5509 dc         1 CLA      0.029400
     87 HBA1       80.9188   57.9659   35.0155 dc         1 CLA      0.029400
     88 HAC2       70.9921   57.0923   44.1000 dc         1 CLA      0.029300
     89 HAC1       70.6744   56.8218   42.3971 dc         1 CLA      0.029300
     90 HAA2       78.0923   56.9866   34.6776 dc         1 CLA      0.028700
     91 HAA1       78.4827   58.6479   35.1246 dc         1 CLA      0.028700
     92 H203       85.2494   62.2840   49.6495 dc         1 CLA      0.065600
     93 H202       85.4266   60.5474   49.9448 dc         1 CLA      0.065600
     94 H201       86.7346   61.4841   49.1350 dc         1 CLA      0.065600
     95 H193       83.1017   60.2710   48.8675 dc         1 CLA      0.065600
     96 H192       82.9458   61.9465   48.2114 dc         1 CLA      0.065600
     97 H191       82.9704   60.6697   47.0829 dc         1 CLA      0.065600
     98 H172       85.5331   58.8214   47.6971 dc         1 CLA      0.027600
     99 H171       86.6749   60.0217   47.0301 dc         1 CLA      0.027600
    100 H162       84.8652   60.3473   45.2105 dc         1 CLA      0.002900
    101 H161       84.0987   58.8456   45.9168 dc         1 CLA      0.002900
    102 H152       86.7063   58.1173   45.6268 dc         1 CLA      0.029100
    103 H151       86.6508   59.1145   44.4848 dc         1 CLA      0.029100
    104 H143       85.4238   55.9456   45.5481 dc         1 CLA      0.063600
    105 H142       83.7886   56.5800   45.1763 dc         1 CLA      0.063600
    106 H141       84.4319   55.3303   44.2125 dc         1 CLA      0.063600
    107 H122       85.2922   58.8788   42.4919 dc         1 CLA      0.032500
    108 H121       83.6897   58.4325   43.2622 dc         1 CLA      0.032500
    109 H112       83.8028   57.7485   40.9509 dc         1 CLA      0.006600
    110 H111       83.8228   56.2128   42.0235 dc         1 CLA      0.006600
    111 H102       86.2385   55.8917   41.5587 dc         1 CLA      0.024100
    112 H101       86.2683   57.4615   41.0378 dc         1 CLA      0.024100
    113 HHD        71.8025   56.0652   40.5606 da         1 CLA      0.174300
    114 HHC        75.6949   59.7732   44.1759 da         1 CLA      0.136800
    115 HHB        80.1918   59.8517   39.8034 da         1 CLA      0.138300
    116 HBD        76.0001   55.9894   35.0868 dc         1 CLA      0.107700
    117 HAB        77.3293   60.8135   45.1379 da         1 CLA      0.155200
    118 H93        86.6533   55.6182   37.7822 dc         1 CLA      0.069500
    119 H92        87.3528   56.9954   38.7424 dc         1 CLA      0.069500
    120 H91        87.4503   55.2372   39.2690 dc         1 CLA      0.069500
    121 H8         84.9725   56.7723   39.0251 dc         1 CLA      0.029300
    122 H72        84.1463   54.6227   40.5028 dc         1 CLA      0.044400
    123 H71        85.3648   53.9027   39.5817 dc         1 CLA      0.044400
    124 H62        84.1316   54.7583   37.4188 dc         1 CLA      0.015600
    125 H61        82.9160   55.2768   38.5839 dc         1 CLA      0.015600
    126 H52        82.3292   53.1549   39.2235 dc         1 CLA      0.033200
    127 H51        83.6910   52.4342   38.5398 dc         1 CLA      0.033200
    128 H43        81.5212   50.9608   38.2618 dc         1 CLA      0.037000
    129 H42        80.6948   51.3066   36.7119 dc         1 CLA      0.037000
    130 H41        82.4769   50.7855   36.6658 dc         1 CLA      0.037000
    131 H3A        80.1435   58.9336   37.1840 dc         1 CLA      0.041100
    132 H2A        79.3365   56.2412   36.8353 dc         1 CLA      0.083100
    133 H2         80.5952   54.1094   37.3098 da         1 CLA      0.180900
    134 H18        85.2482   61.8788   47.4071 dc         1 CLA     -0.003900
    135 H13        86.2773   56.9172   43.6034 dc         1 CLA      0.019700
    136 H12        81.0922   53.5736   34.5989 dc         1 CLA      0.120400
    137 H11        82.7067   54.1120   34.9404 dc         1 CLA      0.120400
    138 C1         68.6983   60.8873   50.2750 Z1         2 LUT      0.509236
    139 C2         67.5106   60.5976   51.1377 Z2         2 LUT     -0.434695
    140 C3         66.4163   61.6587   51.1977 Z3         2 LUT      0.437453
    141 O3         66.0140   61.8669   52.5810 S1         2 LUT     -0.547129
    142 C4         66.6234   62.9583   50.4456 Z4         2 LUT     -0.468603
    143 C5         67.2367   62.6708   49.1782 Z5         2 LUT      0.279246
    144 C6         68.1688   61.6907   49.0818 Z6         2 LUT     -0.305473
    145 C7         68.4057   61.1385   47.7919 Z7         2 LUT      0.069402
    146 C8         69.5073   61.5656   47.0745 Z8         2 LUT     -0.191631
    147 C9         69.9655   61.0842   45.7785 Z9         2 LUT      0.196698
    148 C10        71.0033   61.7367   45.1978 Y1         2 LUT     -0.208611
    149 C11        71.7450   61.4643   43.9742 Y2         2 LUT      0.030784
    150 C12        72.9059   62.1292   43.6977 Y3         2 LUT     -0.220316
    151 C13        73.8431   62.0359   42.6696 Y4         2 LUT      0.215937
    152 C14        74.9992   62.7591   42.8714 Y5         2 LUT     -0.185793
    153 C15        76.1183   62.9065   41.9596 Y6         2 LUT     -0.057835
    154 C16        69.3877   59.5250   49.9690 Y7         2 LUT     -0.405615
    155 C17        69.7033   61.6953   51.2432 Y7         2 LUT     -0.405615
    156 C18        66.4807   63.1744   47.9803 Y9         2 LUT     -0.369639
    157 C19        69.3877   59.8768   45.0186 W1         2 LUT     -0.333362
    158 C20        73.3399   61.5307   41.3127 W2         2 LUT     -0.323439
    159 C21        86.9940   64.9873   35.6505 Z1         2 LUT      0.406104
    160 C22        87.8881   64.5132   34.4848 Z2         2 LUT     -0.404965
    161 C23        88.1007   65.4755   33.3286 Z3         2 LUT      0.391255
    162 O23        89.0703   64.8192   32.3938 S1         2 LUT     -0.528210
    163 C24        86.8527   66.1545   32.8722 W6         2 LUT     -0.258361
    164 C25        85.7191   66.1522   33.5715 Z5         2 LUT      0.133546
    165 C26        85.5914   65.3449   34.9760 W8         2 LUT     -0.147008
    166 C27        84.7617   66.0750   35.9611 Z7         2 LUT      0.023843
    167 C28        83.6281   65.5196   36.5311 Z8         2 LUT     -0.216987
    168 C29        82.9166   65.9860   37.7230 Z9         2 LUT      0.206524
    169 C30        81.9316   65.1748   38.2269 Y1         2 LUT     -0.215556
    170 C31        81.1447   65.3414   39.3783 Y2         2 LUT      0.025142
    171 C32        80.1759   64.5034   39.8614 Y3         2 LUT     -0.212209
    172 C33        79.3383   64.6734   41.0347 Y4         2 LUT      0.240937
    173 C34        78.2348   63.8817   41.0817 Y5         2 LUT     -0.218862
    174 C35        77.2049   63.7292   42.1397 Y6         2 LUT     -0.023547
    175 C36        87.5900   66.2085   36.3707 Y7         2 LUT     -0.393485
    176 C37        87.0246   63.7853   36.7139 Y7         2 LUT     -0.393485
    177 C38        84.5089   66.9300   33.0191 Y9         2 LUT     -0.387526
    178 C39        83.2029   67.3429   38.3560 W1         2 LUT     -0.322618
    179 C40        79.8935   65.6323   42.0340 W2         2 LUT     -0.358472
    180 H403       80.3780   66.5631   41.6825 R7         2 LUT      0.097720
    181 H402       79.2286   65.8815   42.8055 R7         2 LUT      0.097720
    182 H401       80.6104   65.0926   42.6774 R7         2 LUT      0.097720
    183 H393       84.2678   67.5765   38.4009 R4         2 LUT      0.082505
    184 H392       82.6968   68.1068   37.7848 R4         2 LUT      0.082505
    185 H391       82.8248   67.5206   39.3932 R4         2 LUT      0.082505
    186 H383       84.6851   67.2739   31.9065 R1         2 LUT      0.104030
    187 H382       83.6496   66.2094   32.9154 R1         2 LUT      0.104030
    188 H381       84.1820   67.7564   33.6811 R1         2 LUT      0.104030
    189 H373       86.6329   64.1239   37.6538 T4         2 LUT      0.089537
    190 H372       86.4501   62.9989   36.2663 T4         2 LUT      0.089537
    191 H371       88.0375   63.5196   36.9198 T4         2 LUT      0.089537
    192 H363       88.6240   66.0959   36.7233 T4         2 LUT      0.089537
    193 H362       87.6157   66.9870   35.6536 T4         2 LUT      0.089537
    194 H361       86.9526   66.5657   37.1869 T4         2 LUT      0.089537
    195 H222       88.8779   64.3317   34.8685 U2         2 LUT      0.127376
    196 H221       87.3741   63.6611   34.0272 U2         2 LUT      0.127376
    197 H203       73.9956   61.7491   40.4268 R7         2 LUT      0.087068
    198 H202       73.1729   60.4086   41.4191 R7         2 LUT      0.087068
    199 H201       72.4218   61.9568   41.1141 R7         2 LUT      0.087068
    200 H193       69.4011   60.0365   43.9480 R4         2 LUT      0.089716
    201 H192       69.9515   58.9855   45.1663 R4         2 LUT      0.089716
    202 H191       68.3591   59.7425   45.3428 R4         2 LUT      0.089716
    203 H183       66.4348   62.4172   47.2429 R1         2 LUT      0.094572
    204 H182       65.4950   63.5613   48.2035 R1         2 LUT      0.094572
    205 H181       66.9932   64.0756   47.6282 R1         2 LUT      0.094572
    206 H173       70.6520   61.9503   50.7857 T4         2 LUT      0.093752
    207 H172       69.2029   62.5760   51.5635 T4         2 LUT      0.093752
    208 H171       69.9516   61.1711   52.1511 T4         2 LUT      0.093752
    209 H163       68.7722   58.8429   49.3799 T4         2 LUT      0.093752
    210 H162       70.3013   59.7752   49.3630 T4         2 LUT      0.093752
    211 H161       69.6828   59.0432   50.8544 T4         2 LUT      0.093752
    212 HO3        66.6182   62.3567   53.1203 Q1         2 LUT      0.300121
    213 H8         70.2161   62.2418   47.5978 U7         2 LUT      0.080784
    214 H7         67.5545   60.5111   47.2862 U6         2 LUT      0.042190
    215 H42        65.6728   63.4912   50.2722 U5         2 LUT      0.145166
    216 H41        67.2836   63.7550   50.9199 U5         2 LUT      0.145166
    217 H35        77.3928   64.2628   43.0996 T3         2 LUT      0.077919
    218 H34        78.2044   63.1093   40.2525 T2         2 LUT      0.073626
    219 H32        80.0870   63.6234   39.1944 T1         2 LUT      0.092510
    220 H31        81.2482   66.2648   39.9110 U9         2 LUT      0.070048
    221 H30        81.7470   64.2100   37.7356 U8         2 LUT      0.085442
    222 H3         65.6204   61.2063   50.6508 U3         2 LUT     -0.031596
    223 H28        83.2936   64.5281   36.2155 U7         2 LUT      0.084728
    224 H27        85.0659   67.0410   36.2153 U6         2 LUT      0.087291
    225 H26        85.2582   64.3761   34.7686 Q6         2 LUT      0.075325
    226 H24        86.9794   66.7768   32.0233 Q5         2 LUT      0.094482
    227 H23        88.7448   66.1916   33.9076 U3         2 LUT     -0.024869
    228 H22        66.9180   59.8305   50.6813 U2         2 LUT      0.127376
    229 H21        67.7252   60.2637   52.1782 U2         2 LUT      0.127376
    230 H15        76.0909   62.3434   41.0189 T3         2 LUT      0.093200
    231 H14        75.1216   63.4639   43.7652 T2         2 LUT      0.068865
    232 H12        73.2203   62.8174   44.5044 T1         2 LUT      0.095507
    233 H11        71.3642   60.7103   43.2178 U9         2 LUT      0.068930
    234 H10        71.2363   62.7201   45.6233 U8         2 LUT      0.083911
    235 H1         88.5996   64.4260   31.6316 Q1         2 LUT      0.297311
@<TRIPOS>BOND
    1     6     1 1
    2     7     2 1
    3     8     3 1
    4     9     4 1
    5    11     4 1
    6    12     6 1
    7    13     9 1
    8    16     9 1
    9    25     5 1
   10    25    16 1
   11    26    10 1
   12    26    17 1
   13    27    18 1
   14    28    14 1
   15    28    19 1
   16    29    12 1
   17    30    13 1
   18    31    24 1
   19    32     1 1
   20    32    25 1
   21    33    21 1
   22    33    26 1
   23    34    22 1
   24    34    27 1
   25    35    23 1
   26    35    28 1
   27    36    12 1
   28    36    24 1
   29    37    13 1
   30    37    15 1
   31    38    31 1
   32    39    20 1
   33    39    32 1
   34    40     2 1
   35    40    33 1
   36    41     3 1
   37    41    34 1
   38    42     4 1
   39    42    35 1
   40    43    38 1
   41    44     5 1
   42    44    17 1
   43    44    39 1
   44    45    10 1
   45    45    18 1
   46    45    40 1
   47    46    19 1
   48    46    41 1
   49    47    14 1
   50    47    16 1
   51    47    42 1
   52    48    38 1
   53    49    48 1
   54    50    49 1
   55    51    50 1
   56    52    51 1
   57    53    51 1
   58    54    53 1
   59    55    54 1
   60    56    55 1
   61    57    56 1
   62    58    56 1
   63    59    58 1
   64    60    59 1
   65    61    60 1
   66    62    61 1
   67    63    61 1
   68    64    27 1
   69    64    46 1
   70    65     5 1
   71    65    10 1
   72    65    64 1
   73    65    14 1
   74    66    23 1
   75    67    23 1
   76    68    23 1
   77    69    22 1
   78    70    22 1
   79    71    22 1
   80    72    21 1
   81    73    21 1
   82    74    21 1
   83    75    20 1
   84    76    20 1
   85    77    20 1
   86    78    15 1
   87    79    15 1
   88    80    15 1
   89    81     8 1
   90    82     8 1
   91    83     8 1
   92    84     7 1
   93    85     7 1
   94    86     6 1
   95    87     6 1
   96    88     3 1
   97    89     3 1
   98    90     1 1
   99    91     1 1
  100    92    63 1
  101    93    63 1
  102    94    63 1
  103    95    62 1
  104    96    62 1
  105    97    62 1
  106    98    60 1
  107    99    60 1
  108   100    59 1
  109   101    59 1
  110   102    58 1
  111   103    58 1
  112   104    57 1
  113   105    57 1
  114   106    57 1
  115   107    55 1
  116   108    55 1
  117   109    54 1
  118   110    54 1
  119   111    53 1
  120   112    53 1
  121   113    19 1
  122   114    18 1
  123   115    17 1
  124   116     9 1
  125   117     2 1
  126   118    52 1
  127   119    52 1
  128   120    52 1
  129   121    51 1
  130   122    50 1
  131   123    50 1
  132   124    49 1
  133   125    49 1
  134   126    48 1
  135   127    48 1
  136   128    43 1
  137   129    43 1
  138   130    43 1
  139   131    39 1
  140   132    32 1
  141   133    31 1
  142   134    61 1
  143   135    56 1
  144   136    24 1
  145   137    24 1
  146   139   138 1
  147   140   139 1
  148   141   140 1
  149   142   140 1
  150   143   142 1
  151   144   138 1
  152   144   143 1
  153   145   144 1
  154   146   145 1
  155   147   146 1
  156   148   147 1
  157   149   148 1
  158   150   149 1
  159   151   150 1
  160   152   151 1
  161   153   152 1
  162   154   138 1
  163   155   138 1
  164   156   143 1
  165   157   147 1
  166   158   151 1
  167   160   159 1
  168   161   160 1
  169   162   161 1
  170   163   161 1
  171   164   163 1
  172   165   159 1
  173   165   164 1
  174   166   165 1
  175   167   166 1
  176   168   167 1
  177   169   168 1
  178   170   169 1
  179   171   170 1
  180   172   171 1
  181   173   172 1
  182   174   153 1
  183   174   173 1
  184   175   159 1
  185   176   159 1
  186   177   164 1
  187   178   168 1
  188   179   172 1
  189   180   179 1
  190   181   179 1
  191   182   179 1
  192   183   178 1
  193   184   178 1
  194   185   178 1
  195   186   177 1
  196   187   177 1
  197   188   177 1
  198   189   176 1
  199   190   176 1
  200   191   176 1
  201   192   175 1
  202   193   175 1
  203   194   175 1
  204   195   160 1
  205   196   160 1
  206   197   158 1
  207   198   158 1
  208   199   158 1
  209   200   157 1
  210   201   157 1
  211   202   157 1
  212   203   156 1
  213   204   156 1
  214   205   156 1
  215   206   155 1
  216   207   155 1
  217   208   155 1
  218   209   154 1
  219   210   154 1
  220   211   154 1
  221   212   141 1
  222   213   146 1
  223   214   145 1
  224   215   142 1
  225   216   142 1
  226   217   174 1
  227   218   173 1
  228   219   171 1
  229   220   170 1
  230   221   169 1
  231   222   140 1
  232   223   167 1
  233   224   166 1
  234   225   165 1
  235   226   163 1
  236   227   161 1
  237   228   139 1
  238   229   139 1
  239   230   153 1
  240   231   152 1
  241   232   150 1
  242   233   149 1
  243   234   148 1
  244   235   162 1
  245   65    153 1
  246   65    174 1
@<TRIPOS>SUBSTRUCTURE
      1 CLA               1 ****               0 ****  **** 
      2 LUT             138 ****               0 ****  **** 
