@<TRIPOS>MOLECULE
Cpptraj generated mol2 file.
  235   246     2     0     0
SMALL
USER_CHARGES


@<TRIPOS>ATOM
      1 CAA        78.1575   57.9048   35.1821 a2         1 CLA     -0.055900
      2 CAB        78.3068   62.0098   44.0971 c8         1 CLA     -0.148500
      3 CAC        71.4014   58.1334   43.7945 a2         1 CLA     -0.012600
      4 CAD        74.2645   55.1466   36.6670 ck         1 CLA      0.398800
      5 NA         77.1569   58.5568   38.5354 ns         1 CLA     -0.225500
      6 CBA        79.4548   57.8764   34.3345 a2         1 CLA     -0.135000
      7 CBB        79.5085   62.4660   44.6035 c0         1 CLA     -0.395200
      8 CBC        71.6586   56.5610   43.9368 a3         1 CLA     -0.037700
      9 CBD        75.7948   55.6394   36.3592 a1         1 CLA     -0.053900
     10 NB         77.1663   60.1194   41.1290 nm         1 CLA     -0.295700
     11 OBD        73.5645   54.3475   36.0039 o2         1 CLA     -0.494600
     12 CGA        79.9779   56.4454   34.1107 c4         1 CLA      0.827000
     13 CGD        76.7806   54.4700   36.6046 c4         1 CLA      0.655300
     14 ND         74.4420   57.7483   39.1771 nm         1 CLA     -0.291600
     15 CED        77.3781   52.6243   38.0457 a3         1 CLA      0.005400
     16 CHA        75.9783   56.8644   37.3217 cs         1 CLA     -0.123800
     17 CHB        78.9620   60.0564   39.4310 aa         1 CLA     -0.291900
     18 CHC        75.8036   60.5891   43.1266 aa         1 CLA     -0.090400
     19 CHD        72.6470   57.8182   40.7596 aa         1 CLA     -0.052000
     20 CMA        80.5605   57.8445   37.8838 a3         1 CLA     -0.230700
     21 CMB        80.1973   62.2474   41.3668 a3         1 CLA     -0.180800
     22 CMC        73.5383   59.9208   45.2865 a3         1 CLA     -0.134000
     23 CMD        71.4174   55.5175   38.7675 a3         1 CLA     -0.141100
     24 C1         80.6667   54.5150   35.1274 a2         1 CLA      0.023000
     25 C1A        77.1057   57.6872   37.4809 ac         1 CLA     -0.015100
     26 C1B        78.3930   60.4515   40.6594 cr         1 CLA      0.054700
     27 C1C        74.5942   59.8943   42.9129 cn         1 CLA     -0.005600
     28 C1D        73.2366   57.2334   39.5742 ap         1 CLA     -0.047300
     29 O1A        79.7687   55.7879   33.0867 o2         1 CLA     -0.610800
     30 O1D        77.6066   53.9621   35.8363 o2         1 CLA     -0.558200
     31 C2         81.1095   53.9082   36.4447 c8         1 CLA     -0.325100
     32 C2A        78.3720   57.6513   36.6813 a1         1 CLA      0.098600
     33 C2B        78.9628   61.3674   41.6239 cb         1 CLA      0.088500
     34 C2C        73.5268   59.6139   43.8178 cb         1 CLA      0.053700
     35 C2D        72.7172   56.2258   38.6629 cb         1 CLA      0.058900
     36 O2A        80.5307   55.9240   35.2440 o1         1 CLA     -0.437200
     37 O2D        76.5165   53.8310   37.8421 o1         1 CLA     -0.357600
     38 C3         82.3878   53.9130   36.7998 c5         1 CLA      0.031200
     39 C3A        79.2850   58.5620   37.4573 a1         1 CLA      0.166800
     40 C3B        78.1557   61.3901   42.7421 cb         1 CLA      0.035000
     41 C3C        72.5919   58.8713   43.1329 cb         1 CLA     -0.089900
     42 C3D        73.7640   55.9423   37.7472 cb         1 CLA     -0.035900
     43 C4         83.3476   52.8704   36.2625 a3         1 CLA     -0.053300
     44 C4A        78.3969   59.1843   38.5208 ac         1 CLA      0.001800
     45 C4B        77.0020   60.7214   42.3450 cn         1 CLA     -0.020900
     46 C4C        73.1585   58.6560   41.7706 cr         1 CLA     -0.044400
     47 C4D        74.8089   56.9129   38.1251 c6         1 CLA     -0.046000
     48 C5         82.7911   54.9330   37.8828 a2         1 CLA     -0.070400
     49 C6         84.2453   55.0450   38.2214 a2         1 CLA      0.043900
     50 C7         84.6328   55.9692   39.3424 a2         1 CLA     -0.150000
     51 C8         84.3614   57.4968   39.0479 a1         1 CLA      0.064200
     52 C9         85.2354   58.1658   37.9425 a3         1 CLA     -0.259300
     53 C10        84.6701   58.3125   40.3639 a2         1 CLA     -0.071900
     54 C11        83.5368   58.3694   41.4470 a2         1 CLA      0.014500
     55 C12        83.6124   59.5762   42.4668 a2         1 CLA     -0.112100
     56 C13        84.9333   59.5750   43.3168 a1         1 CLA      0.089200
     57 C14        85.1002   58.2590   44.1945 a3         1 CLA     -0.239100
     58 C15        85.0327   60.8658   44.2312 a2         1 CLA     -0.102200
     59 C16        83.9842   61.0461   45.3548 a2         1 CLA      0.023900
     60 C17        84.1772   62.5120   45.9325 a2         1 CLA     -0.105700
     61 C18        83.7590   62.7937   47.3598 a1         1 CLA      0.206800
     62 C19        82.3040   62.4121   47.6483 a3         1 CLA     -0.280100
     63 C20        84.7280   61.9199   48.3283 a3         1 CLA     -0.280100
     64 NC         74.4055   59.2157   41.6929 nx         1 CLA     -0.309200
     65 MG         75.7204   59.1061   40.0257 mg         1 CLA      0.895000
     66 HMD3       70.5748   56.2178   38.6386 dc         1 CLA      0.064300
     67 HMD2       71.4631   54.6703   38.0586 dc         1 CLA      0.064300
     68 HMD1       71.4147   55.1179   39.7824 dc         1 CLA      0.064300
     69 HMC3       73.9688   60.9197   45.3094 dc         1 CLA      0.052100
     70 HMC2       72.4974   59.9143   45.5908 dc         1 CLA      0.052100
     71 HMC1       74.1655   59.2319   45.8027 dc         1 CLA      0.052100
     72 HMB3       80.4311   63.0086   42.0574 dc         1 CLA      0.063600
     73 HMB2       81.1194   61.5714   41.3844 dc         1 CLA      0.063600
     74 HMB1       80.1960   62.7878   40.4605 dc         1 CLA      0.063600
     75 HMA3       81.1093   58.4450   38.5720 dc         1 CLA      0.058300
     76 HMA2       80.2653   56.8755   38.3440 dc         1 CLA      0.058300
     77 HMA1       81.2165   57.6537   37.0337 dc         1 CLA      0.058300
     78 HED3       76.8980   51.9561   38.6495 dc         1 CLA      0.079300
     79 HED2       77.4005   52.1217   37.1208 dc         1 CLA      0.079300
     80 HED1       78.3468   52.9559   38.4473 dc         1 CLA      0.079300
     81 HBC3       71.8072   56.1151   42.9444 dc         1 CLA      0.016300
     82 HBC2       72.5180   56.5000   44.6246 dc         1 CLA      0.016300
     83 HBC1       70.7799   56.0958   44.4395 dc         1 CLA      0.016300
     84 HBB2       79.5033   62.8322   45.6261 da         1 CLA      0.183000
     85 HBB1       80.4451   62.4672   44.0952 da         1 CLA      0.183000
     86 HBA2       79.2511   58.0789   33.3096 dc         1 CLA      0.029400
     87 HBA1       80.2908   58.5414   34.6664 dc         1 CLA      0.029400
     88 HAC2       71.1387   58.5413   44.7847 dc         1 CLA      0.029300
     89 HAC1       70.5005   58.2516   43.1696 dc         1 CLA      0.029300
     90 HAA2       77.4621   57.2612   34.6829 dc         1 CLA      0.028700
     91 HAA1       77.7719   58.9229   35.0633 dc         1 CLA      0.028700
     92 H203       85.7117   62.3015   48.1181 dc         1 CLA      0.065600
     93 H202       84.3898   62.2602   49.2634 dc         1 CLA      0.065600
     94 H201       84.5702   60.8541   48.1843 dc         1 CLA      0.065600
     95 H193       81.7421   62.8950   46.8967 dc         1 CLA      0.065600
     96 H192       82.3215   61.2942   47.5776 dc         1 CLA      0.065600
     97 H191       82.0931   62.5878   48.7330 dc         1 CLA      0.065600
     98 H172       85.2017   62.8210   45.8244 dc         1 CLA      0.027600
     99 H171       83.6427   63.2570   45.2870 dc         1 CLA      0.027600
    100 H162       82.9705   60.9748   44.9645 dc         1 CLA      0.002900
    101 H161       84.0098   60.2356   46.0322 dc         1 CLA      0.002900
    102 H152       86.0282   60.8411   44.6840 dc         1 CLA      0.029100
    103 H151       84.8904   61.6212   43.5897 dc         1 CLA      0.029100
    104 H143       84.0523   57.9303   44.4345 dc         1 CLA      0.063600
    105 H142       85.4256   57.3355   43.6901 dc         1 CLA      0.063600
    106 H141       85.6840   58.4315   45.1376 dc         1 CLA      0.063600
    107 H122       83.6678   60.5578   41.9983 dc         1 CLA      0.032500
    108 H121       82.8251   59.7467   43.1127 dc         1 CLA      0.032500
    109 H112       82.5858   58.3063   41.0085 dc         1 CLA      0.006600
    110 H111       83.4683   57.4757   42.0690 dc         1 CLA      0.006600
    111 H102       85.5994   57.9785   40.8169 dc         1 CLA      0.024100
    112 H101       84.7333   59.3491   40.0234 dc         1 CLA      0.024100
    113 HHD        71.6551   57.5314   40.9870 da         1 CLA      0.174300
    114 HHC        75.7466   60.9724   44.1606 da         1 CLA      0.136800
    115 HHB        80.0151   60.3287   39.2080 da         1 CLA      0.138300
    116 HBD        75.7084   55.9495   35.2925 dc         1 CLA      0.107700
    117 HAB        77.4563   62.0431   44.7773 da         1 CLA      0.155200
    118 H93        86.2029   58.5377   38.3091 dc         1 CLA      0.069500
    119 H92        85.3226   57.4839   37.0539 dc         1 CLA      0.069500
    120 H91        84.5934   58.9956   37.6504 dc         1 CLA      0.069500
    121 H8         83.2961   57.6738   38.8648 dc         1 CLA      0.029300
    122 H72        84.0844   55.7133   40.2469 dc         1 CLA      0.044400
    123 H71        85.6737   55.8280   39.5186 dc         1 CLA      0.044400
    124 H62        84.7161   54.0345   38.5213 dc         1 CLA      0.015600
    125 H61        84.8070   55.3334   37.2878 dc         1 CLA      0.015600
    126 H52        82.5477   55.8626   37.3881 dc         1 CLA      0.033200
    127 H51        82.1188   54.7948   38.7375 dc         1 CLA      0.033200
    128 H43        83.9331   52.4576   36.9704 dc         1 CLA      0.037000
    129 H42        82.7498   52.0065   35.9522 dc         1 CLA      0.037000
    130 H41        83.8947   53.3572   35.4825 dc         1 CLA      0.037000
    131 H3A        79.6392   59.3762   36.8286 dc         1 CLA      0.041100
    132 H2A        78.5692   56.6306   36.7957 dc         1 CLA      0.083100
    133 H2         80.3915   53.3435   37.0474 da         1 CLA      0.180900
    134 H18        83.8016   63.9263   47.5613 dc         1 CLA     -0.003900
    135 H13        85.8771   59.6370   42.6957 dc         1 CLA      0.019700
    136 H12        79.7500   53.9578   34.9269 dc         1 CLA      0.120400
    137 H11        81.4390   54.2381   34.4170 dc         1 CLA      0.120400
    138 C1         67.2398   62.8042   50.8362 Z1         2 LUT      0.509236
    139 C2         67.2139   64.1442   51.5586 Z2         2 LUT     -0.434695
    140 C3         65.9275   64.9021   51.5572 Z3         2 LUT      0.437453
    141 O3         66.2601   66.2213   51.8816 S1         2 LUT     -0.547129
    142 C4         65.0740   64.6675   50.2370 Z4         2 LUT     -0.468603
    143 C5         65.8055   63.9725   49.1248 Z5         2 LUT      0.279246
    144 C6         66.7820   63.0179   49.3977 Z6         2 LUT     -0.305473
    145 C7         67.5540   62.4153   48.2648 Z7         2 LUT      0.069402
    146 C8         68.5689   62.8758   47.5246 Z8         2 LUT     -0.191631
    147 C9         69.2439   62.1878   46.4064 Z9         2 LUT      0.196698
    148 C10        70.2534   62.8431   45.6842 Y1         2 LUT     -0.208611
    149 C11        71.1111   62.5079   44.5377 Y2         2 LUT      0.030784
    150 C12        72.2567   63.1588   44.1767 Y3         2 LUT     -0.220316
    151 C13        73.1182   62.8614   43.0778 Y4         2 LUT      0.215937
    152 C14        74.2391   63.6057   42.9146 Y5         2 LUT     -0.185793
    153 C15        75.2583   63.6369   41.9687 Y6         2 LUT     -0.057835
    154 C16        66.2519   61.8507   51.6567 Y7         2 LUT     -0.405615
    155 C17        68.6133   62.1181   51.1510 Y7         2 LUT     -0.405615
    156 C18        65.5500   64.5815   47.8091 Y9         2 LUT     -0.369639
    157 C19        68.8465   60.8251   45.8805 W1         2 LUT     -0.333362
    158 C20        72.3752   62.1785   41.8979 W2         2 LUT     -0.323439
    159 C21        86.7065   65.3139   35.5115 Z1         2 LUT      0.406104
    160 C22        87.5188   64.7641   34.3653 Z2         2 LUT     -0.404965
    161 C23        87.5505   65.6641   33.2119 Z3         2 LUT      0.391255
    162 O23        88.3817   65.0527   32.2144 S1         2 LUT     -0.528210
    163 C24        86.2059   66.1389   32.6956 W6         2 LUT     -0.258361
    164 C25        85.1610   66.2747   33.5838 Z5         2 LUT      0.133546
    165 C26        85.2540   65.6326   34.9913 W8         2 LUT     -0.147008
    166 C27        84.3918   66.4441   35.9185 Z7         2 LUT      0.023843
    167 C28        83.3818   65.9720   36.7602 Z8         2 LUT     -0.216987
    168 C29        82.4777   66.6384   37.7492 Z9         2 LUT      0.206524
    169 C30        81.4245   65.8300   38.2192 Y1         2 LUT     -0.215556
    170 C31        80.6012   66.1355   39.3898 Y2         2 LUT      0.025142
    171 C32        79.4896   65.3945   39.6793 Y3         2 LUT     -0.212209
    172 C33        78.6139   65.4166   40.8832 Y4         2 LUT      0.240937
    173 C34        77.4429   64.6411   41.0014 Y5         2 LUT     -0.218862
    174 C35        76.3878   64.4675   42.0388 Y6         2 LUT     -0.023547
    175 C36        87.4445   66.5857   36.0326 Y7         2 LUT     -0.393485
    176 C37        86.7866   64.2761   36.6565 Y7         2 LUT     -0.393485
    177 C38        83.8344   66.7996   33.1106 Y9         2 LUT     -0.387526
    178 C39        82.7931   68.0115   38.2060 W1         2 LUT     -0.322618
    179 C40        79.2892   66.0386   42.0805 W2         2 LUT     -0.358472
    180 H403       78.5618   66.0070   42.8993 R7         2 LUT      0.097720
    181 H402       80.2518   65.5895   42.3583 R7         2 LUT      0.097720
    182 H401       79.4522   67.0719   42.0013 R7         2 LUT      0.097720
    183 H393       83.6152   68.0384   38.9803 R4         2 LUT      0.082505
    184 H392       82.9225   68.6646   37.3849 R4         2 LUT      0.082505
    185 H391       81.9619   68.4440   38.8076 R4         2 LUT      0.082505
    186 H383       83.0758   65.9997   33.0802 R1         2 LUT      0.104030
    187 H382       83.3005   67.5401   33.7215 R1         2 LUT      0.104030
    188 H381       83.8360   67.2524   32.0588 R1         2 LUT      0.104030
    189 H373       86.2577   64.5643   37.5342 T4         2 LUT      0.089537
    190 H372       86.3661   63.3364   36.2529 T4         2 LUT      0.089537
    191 H371       87.7301   64.0705   37.0917 T4         2 LUT      0.089537
    192 H363       87.3938   67.2841   35.2134 T4         2 LUT      0.089537
    193 H362       86.9627   67.0146   36.9034 T4         2 LUT      0.089537
    194 H361       88.3834   66.2455   36.2932 T4         2 LUT      0.089537
    195 H222       88.5130   64.4416   34.6472 U2         2 LUT      0.127376
    196 H221       86.9359   63.9274   33.9594 U2         2 LUT      0.127376
    197 H203       71.5848   62.7751   41.3571 R7         2 LUT      0.087068
    198 H202       73.0900   61.7659   41.1992 R7         2 LUT      0.087068
    199 H201       71.9062   61.2407   42.2031 R7         2 LUT      0.087068
    200 H193       68.6755   60.7995   44.8501 R4         2 LUT      0.089716
    201 H192       69.6913   60.2144   46.0100 R4         2 LUT      0.089716
    202 H191       68.0516   60.3764   46.4954 R4         2 LUT      0.089716
    203 H183       66.1545   65.5232   47.7180 R1         2 LUT      0.094572
    204 H182       65.7696   63.9035   47.0121 R1         2 LUT      0.094572
    205 H181       64.5131   64.8682   47.7878 R1         2 LUT      0.094572
    206 H173       68.6405   61.1039   50.8238 T4         2 LUT      0.093752
    207 H172       69.3344   62.7192   50.5018 T4         2 LUT      0.093752
    208 H171       68.8397   62.1293   52.1732 T4         2 LUT      0.093752
    209 H163       65.1855   62.1647   51.5396 T4         2 LUT      0.093752
    210 H162       66.2325   60.8347   51.1586 T4         2 LUT      0.093752
    211 H161       66.4632   61.7838   52.7340 T4         2 LUT      0.093752
    212 HO3        65.5206   66.7703   52.2975 Q1         2 LUT      0.300121
    213 H8         68.7923   63.9347   47.7679 U7         2 LUT      0.080784
    214 H7         67.1413   61.4810   48.0822 U6         2 LUT      0.042190
    215 H42        64.0742   64.2919   50.4096 U5         2 LUT      0.145166
    216 H41        64.8032   65.6117   49.8693 U5         2 LUT      0.145166
    217 H35        76.2793   65.2179   42.8341 T3         2 LUT      0.077919
    218 H34        77.3029   63.8357   40.3003 T2         2 LUT      0.073626
    219 H32        79.0951   64.6624   38.9923 T1         2 LUT      0.092510
    220 H31        81.1141   66.8566   39.9995 U9         2 LUT      0.070048
    221 H30        81.2742   64.8578   37.8100 U8         2 LUT      0.085442
    222 H3         65.4137   64.4497   52.3862 U3         2 LUT     -0.031596
    223 H28        83.3029   64.8743   36.8711 U7         2 LUT      0.084728
    224 H27        84.5454   67.5442   35.8656 U6         2 LUT      0.087291
    225 H26        84.6895   64.7036   34.8045 Q6         2 LUT      0.075325
    226 H24        86.1221   66.5093   31.6441 Q5         2 LUT      0.094482
    227 H23        87.9850   66.6069   33.4470 U3         2 LUT     -0.024869
    228 H22        67.5868   63.9336   52.6027 U2         2 LUT      0.127376
    229 H21        68.0212   64.7762   51.1587 U2         2 LUT      0.127376
    230 H15        75.2810   62.8968   41.2533 T3         2 LUT      0.093200
    231 H14        74.4052   64.4190   43.5942 T2         2 LUT      0.068865
    232 H12        72.5962   63.9093   44.8651 T1         2 LUT      0.095507
    233 H11        70.6805   61.6530   44.0526 U9         2 LUT      0.068930
    234 H10        70.6078   63.7757   46.2136 U8         2 LUT      0.083911
    235 H1         87.9915   64.3074   31.7668 Q1         2 LUT      0.297311
@<TRIPOS>BOND
    1     6     1 1
    2     7     2 1
    3     8     3 1
    4     9     4 1
    5    11     4 1
    6    12     6 1
    7    13     9 1
    8    16     9 1
    9    25     5 1
   10    25    16 1
   11    26    10 1
   12    26    17 1
   13    27    18 1
   14    28    14 1
   15    28    19 1
   16    29    12 1
   17    30    13 1
   18    31    24 1
   19    32     1 1
   20    32    25 1
   21    33    21 1
   22    33    26 1
   23    34    22 1
   24    34    27 1
   25    35    23 1
   26    35    28 1
   27    36    12 1
   28    36    24 1
   29    37    13 1
   30    37    15 1
   31    38    31 1
   32    39    20 1
   33    39    32 1
   34    40     2 1
   35    40    33 1
   36    41     3 1
   37    41    34 1
   38    42     4 1
   39    42    35 1
   40    43    38 1
   41    44     5 1
   42    44    17 1
   43    44    39 1
   44    45    10 1
   45    45    18 1
   46    45    40 1
   47    46    19 1
   48    46    41 1
   49    47    14 1
   50    47    16 1
   51    47    42 1
   52    48    38 1
   53    49    48 1
   54    50    49 1
   55    51    50 1
   56    52    51 1
   57    53    51 1
   58    54    53 1
   59    55    54 1
   60    56    55 1
   61    57    56 1
   62    58    56 1
   63    59    58 1
   64    60    59 1
   65    61    60 1
   66    62    61 1
   67    63    61 1
   68    64    27 1
   69    64    46 1
   70    65     5 1
   71    65    10 1
   72    65    64 1
   73    65    14 1
   74    66    23 1
   75    67    23 1
   76    68    23 1
   77    69    22 1
   78    70    22 1
   79    71    22 1
   80    72    21 1
   81    73    21 1
   82    74    21 1
   83    75    20 1
   84    76    20 1
   85    77    20 1
   86    78    15 1
   87    79    15 1
   88    80    15 1
   89    81     8 1
   90    82     8 1
   91    83     8 1
   92    84     7 1
   93    85     7 1
   94    86     6 1
   95    87     6 1
   96    88     3 1
   97    89     3 1
   98    90     1 1
   99    91     1 1
  100    92    63 1
  101    93    63 1
  102    94    63 1
  103    95    62 1
  104    96    62 1
  105    97    62 1
  106    98    60 1
  107    99    60 1
  108   100    59 1
  109   101    59 1
  110   102    58 1
  111   103    58 1
  112   104    57 1
  113   105    57 1
  114   106    57 1
  115   107    55 1
  116   108    55 1
  117   109    54 1
  118   110    54 1
  119   111    53 1
  120   112    53 1
  121   113    19 1
  122   114    18 1
  123   115    17 1
  124   116     9 1
  125   117     2 1
  126   118    52 1
  127   119    52 1
  128   120    52 1
  129   121    51 1
  130   122    50 1
  131   123    50 1
  132   124    49 1
  133   125    49 1
  134   126    48 1
  135   127    48 1
  136   128    43 1
  137   129    43 1
  138   130    43 1
  139   131    39 1
  140   132    32 1
  141   133    31 1
  142   134    61 1
  143   135    56 1
  144   136    24 1
  145   137    24 1
  146   139   138 1
  147   140   139 1
  148   141   140 1
  149   142   140 1
  150   143   142 1
  151   144   138 1
  152   144   143 1
  153   145   144 1
  154   146   145 1
  155   147   146 1
  156   148   147 1
  157   149   148 1
  158   150   149 1
  159   151   150 1
  160   152   151 1
  161   153   152 1
  162   154   138 1
  163   155   138 1
  164   156   143 1
  165   157   147 1
  166   158   151 1
  167   160   159 1
  168   161   160 1
  169   162   161 1
  170   163   161 1
  171   164   163 1
  172   165   159 1
  173   165   164 1
  174   166   165 1
  175   167   166 1
  176   168   167 1
  177   169   168 1
  178   170   169 1
  179   171   170 1
  180   172   171 1
  181   173   172 1
  182   174   153 1
  183   174   173 1
  184   175   159 1
  185   176   159 1
  186   177   164 1
  187   178   168 1
  188   179   172 1
  189   180   179 1
  190   181   179 1
  191   182   179 1
  192   183   178 1
  193   184   178 1
  194   185   178 1
  195   186   177 1
  196   187   177 1
  197   188   177 1
  198   189   176 1
  199   190   176 1
  200   191   176 1
  201   192   175 1
  202   193   175 1
  203   194   175 1
  204   195   160 1
  205   196   160 1
  206   197   158 1
  207   198   158 1
  208   199   158 1
  209   200   157 1
  210   201   157 1
  211   202   157 1
  212   203   156 1
  213   204   156 1
  214   205   156 1
  215   206   155 1
  216   207   155 1
  217   208   155 1
  218   209   154 1
  219   210   154 1
  220   211   154 1
  221   212   141 1
  222   213   146 1
  223   214   145 1
  224   215   142 1
  225   216   142 1
  226   217   174 1
  227   218   173 1
  228   219   171 1
  229   220   170 1
  230   221   169 1
  231   222   140 1
  232   223   167 1
  233   224   166 1
  234   225   165 1
  235   226   163 1
  236   227   161 1
  237   228   139 1
  238   229   139 1
  239   230   153 1
  240   231   152 1
  241   232   150 1
  242   233   149 1
  243   234   148 1
  244   235   162 1
  245   65    153 1
  246   65    174 1
@<TRIPOS>SUBSTRUCTURE
      1 CLA               1 ****               0 ****  **** 
      2 LUT             138 ****               0 ****  **** 
