@<TRIPOS>MOLECULE
Cpptraj generated mol2 file.
  235   246     2     0     0
SMALL
USER_CHARGES


@<TRIPOS>ATOM
      1 CAA        78.6854   57.9355   35.5849 a2         1 CLA     -0.055900
      2 CAB        78.3745   62.2941   44.3925 c8         1 CLA     -0.148500
      3 CAC        71.5447   58.0571   43.9228 a2         1 CLA     -0.012600
      4 CAD        74.5301   55.4094   36.8016 ck         1 CLA      0.398800
      5 NA         77.5740   58.5154   38.9596 ns         1 CLA     -0.225500
      6 CBA        80.0699   57.9425   34.8996 a2         1 CLA     -0.135000
      7 CBB        79.6113   62.6925   44.9323 c0         1 CLA     -0.395200
      8 CBC        71.8693   56.7603   44.4984 a3         1 CLA     -0.037700
      9 CBD        76.0544   55.9078   36.4697 a1         1 CLA     -0.053900
     10 NB         77.2618   60.2420   41.4394 nm         1 CLA     -0.295700
     11 OBD        73.9107   54.5986   36.1449 o2         1 CLA     -0.494600
     12 CGA        80.5578   56.5017   34.5992 c4         1 CLA      0.827000
     13 CGD        76.9864   54.7224   36.4364 c4         1 CLA      0.655300
     14 ND         74.7638   57.7403   39.4423 nm         1 CLA     -0.291600
     15 CED        77.5288   52.6220   37.4218 a3         1 CLA      0.005400
     16 CHA        76.2765   56.9767   37.5532 cs         1 CLA     -0.123800
     17 CHB        79.1875   60.1487   39.8072 aa         1 CLA     -0.291900
     18 CHC        75.8754   60.6732   43.3480 aa         1 CLA     -0.090400
     19 CHD        72.8781   57.5671   41.0244 aa         1 CLA     -0.052000
     20 CMA        80.9695   57.9483   38.5000 a3         1 CLA     -0.230700
     21 CMB        80.5789   62.0794   41.8423 a3         1 CLA     -0.180800
     22 CMC        73.4478   60.0976   45.4250 a3         1 CLA     -0.134000
     23 CMD        71.6715   55.6007   38.7507 a3         1 CLA     -0.141100
     24 C1         81.3188   54.4533   35.6197 a2         1 CLA      0.023000
     25 C1A        77.4022   57.6431   37.8579 ac         1 CLA     -0.015100
     26 C1B        78.5233   60.6171   40.9734 cr         1 CLA      0.054700
     27 C1C        74.7841   59.8570   43.0761 cn         1 CLA     -0.005600
     28 C1D        73.5183   57.2224   39.8251 ap         1 CLA     -0.047300
     29 O1A        80.2594   55.9066   33.5550 o2         1 CLA     -0.610800
     30 O1D        77.9597   54.6167   35.6578 o2         1 CLA     -0.558200
     31 C2         81.9931   54.0637   36.9564 c8         1 CLA     -0.325100
     32 C2A        78.6940   57.5665   37.1097 a1         1 CLA      0.098600
     33 C2B        79.1622   61.4702   42.0082 cb         1 CLA      0.088500
     34 C2C        73.6643   59.6457   43.9483 cb         1 CLA      0.053700
     35 C2D        73.0299   56.2982   38.8192 cb         1 CLA      0.058900
     36 O2A        81.1582   55.9015   35.7227 o1         1 CLA     -0.437200
     37 O2D        76.7940   53.8659   37.4810 o1         1 CLA     -0.357600
     38 C3         82.2137   52.8433   37.4060 c5         1 CLA      0.031200
     39 C3A        79.6602   58.5486   37.8232 a1         1 CLA      0.166800
     40 C3B        78.2148   61.5875   43.0564 cb         1 CLA      0.035000
     41 C3C        72.7612   58.7415   43.3333 cb         1 CLA     -0.089900
     42 C3D        74.0703   56.1161   37.9588 cb         1 CLA     -0.035900
     43 C4         81.1298   52.0154   38.0989 a3         1 CLA     -0.053300
     44 C4A        78.7942   59.1590   38.9343 ac         1 CLA      0.001800
     45 C4B        77.0177   60.8696   42.6409 cn         1 CLA     -0.020900
     46 C4C        73.4133   58.4765   42.0197 cr         1 CLA     -0.044400
     47 C4D        75.1355   57.0778   38.3150 c6         1 CLA     -0.046000
     48 C5         83.5540   52.2197   37.2311 a2         1 CLA     -0.070400
     49 C6         84.7523   53.1470   37.4299 a2         1 CLA      0.043900
     50 C7         84.8674   53.9065   38.7815 a2         1 CLA     -0.150000
     51 C8         85.7484   55.1457   38.9263 a1         1 CLA      0.064200
     52 C9         87.2620   54.7244   38.6649 a3         1 CLA     -0.259300
     53 C10        85.5750   56.0700   40.1339 a2         1 CLA     -0.071900
     54 C11        84.1094   56.4627   40.5234 a2         1 CLA      0.014500
     55 C12        83.9835   57.5283   41.6596 a2         1 CLA     -0.112100
     56 C13        84.5776   57.3174   43.1007 a1         1 CLA      0.089200
     57 C14        83.9225   56.1640   43.8895 a3         1 CLA     -0.239100
     58 C15        84.7441   58.6629   43.8682 a2         1 CLA     -0.102200
     59 C16        83.5501   59.2603   44.6638 a2         1 CLA      0.023900
     60 C17        84.0008   59.9064   45.9189 a2         1 CLA     -0.105700
     61 C18        82.9766   60.6139   46.7185 a1         1 CLA      0.206800
     62 C19        81.6885   59.8766   47.1950 a3         1 CLA     -0.280100
     63 C20        83.6059   61.2576   48.0338 a3         1 CLA     -0.280100
     64 NC         74.5602   59.1646   41.9090 nx         1 CLA     -0.309200
     65 MG         75.9522   59.0142   40.4035 mg         1 CLA      0.895000
     66 HMD3       71.6849   54.8216   37.9551 dc         1 CLA      0.064300
     67 HMD2       71.5236   55.0539   39.6853 dc         1 CLA      0.064300
     68 HMD1       70.9592   56.3928   38.6489 dc         1 CLA      0.064300
     69 HMC3       73.4054   59.2448   46.0397 dc         1 CLA      0.052100
     70 HMC2       74.3317   60.6450   45.7242 dc         1 CLA      0.052100
     71 HMC1       72.6895   60.8563   45.4728 dc         1 CLA      0.052100
     72 HMB3       80.6307   62.3401   40.8209 dc         1 CLA      0.063600
     73 HMB2       80.5793   62.9413   42.4637 dc         1 CLA      0.063600
     74 HMB1       81.2474   61.3465   42.1181 dc         1 CLA      0.063600
     75 HMA3       81.5774   57.7030   37.6499 dc         1 CLA      0.058300
     76 HMA2       81.4827   58.5770   39.2032 dc         1 CLA      0.058300
     77 HMA1       80.6091   57.0861   39.0271 dc         1 CLA      0.058300
     78 HED3       77.2904   52.0961   36.5125 dc         1 CLA      0.079300
     79 HED2       78.5713   52.8841   37.4800 dc         1 CLA      0.079300
     80 HED1       77.1318   52.0815   38.2715 dc         1 CLA      0.079300
     81 HBC3       71.0585   56.1784   44.8005 dc         1 CLA      0.016300
     82 HBC2       72.4552   56.2276   43.7498 dc         1 CLA      0.016300
     83 HBC1       72.5279   56.8859   45.3778 dc         1 CLA      0.016300
     84 HBB2       79.6288   63.0081   45.9815 da         1 CLA      0.183000
     85 HBB1       80.6077   62.5093   44.4979 da         1 CLA      0.183000
     86 HBA2       79.9962   58.5634   34.0427 dc         1 CLA      0.029400
     87 HBA1       80.9799   58.3762   35.4444 dc         1 CLA      0.029400
     88 HAC2       71.0392   58.6860   44.6505 dc         1 CLA      0.029300
     89 HAC1       70.7893   57.8749   43.1868 dc         1 CLA      0.029300
     90 HAA2       78.0331   57.3422   35.0737 dc         1 CLA      0.028700
     91 HAA1       78.2548   58.9869   35.5063 dc         1 CLA      0.028700
     92 H203       82.9013   61.9240   48.5554 dc         1 CLA      0.065600
     93 H202       84.0744   60.4084   48.5915 dc         1 CLA      0.065600
     94 H201       84.4328   61.9178   47.8461 dc         1 CLA      0.065600
     95 H193       81.0791   59.5677   46.3978 dc         1 CLA      0.065600
     96 H192       82.0991   59.1076   47.8660 dc         1 CLA      0.065600
     97 H191       81.1131   60.5415   47.8330 dc         1 CLA      0.065600
     98 H172       84.4563   59.1231   46.5244 dc         1 CLA      0.027600
     99 H171       84.7865   60.6108   45.6634 dc         1 CLA      0.027600
    100 H162       82.9081   59.9370   44.0886 dc         1 CLA      0.002900
    101 H161       82.9388   58.3908   44.9949 dc         1 CLA      0.002900
    102 H152       85.5633   58.5151   44.5652 dc         1 CLA      0.029100
    103 H151       85.1157   59.4440   43.1597 dc         1 CLA      0.029100
    104 H143       82.8937   56.3359   44.1995 dc         1 CLA      0.063600
    105 H142       83.9076   55.2280   43.2910 dc         1 CLA      0.063600
    106 H141       84.5428   56.1377   44.8365 dc         1 CLA      0.063600
    107 H122       84.4399   58.4823   41.2591 dc         1 CLA      0.032500
    108 H121       82.8928   57.7493   41.7534 dc         1 CLA      0.032500
    109 H112       83.6345   56.8833   39.6311 dc         1 CLA      0.006600
    110 H111       83.8003   55.4347   40.8399 dc         1 CLA      0.006600
    111 H102       86.1509   55.7025   40.9989 dc         1 CLA      0.024100
    112 H101       86.1475   56.9773   39.8644 dc         1 CLA      0.024100
    113 HHD        71.9553   56.9019   41.3110 da         1 CLA      0.174300
    114 HHC        75.8654   61.1770   44.4011 da         1 CLA      0.136800
    115 HHB        80.1952   60.4112   39.7036 da         1 CLA      0.138300
    116 HBD        76.2047   56.3908   35.4988 dc         1 CLA      0.107700
    117 HAB        77.5262   62.5593   44.9966 da         1 CLA      0.155200
    118 H93        87.5074   53.7802   39.2427 dc         1 CLA      0.069500
    119 H92        87.4951   54.5221   37.6703 dc         1 CLA      0.069500
    120 H91        87.9019   55.5133   39.0929 dc         1 CLA      0.069500
    121 H8         85.3447   55.6747   38.0470 dc         1 CLA      0.029300
    122 H72        83.9034   54.3076   38.9224 dc         1 CLA      0.044400
    123 H71        85.0974   53.2265   39.6613 dc         1 CLA      0.044400
    124 H62        85.6623   52.5101   37.2061 dc         1 CLA      0.015600
    125 H61        84.6753   53.9197   36.7032 dc         1 CLA      0.015600
    126 H52        83.6891   51.4478   37.9525 dc         1 CLA      0.033200
    127 H51        83.6432   51.8190   36.1874 dc         1 CLA      0.033200
    128 H43        81.6844   51.4075   38.8652 dc         1 CLA      0.037000
    129 H42        80.4330   52.5645   38.6220 dc         1 CLA      0.037000
    130 H41        80.6084   51.4236   37.3862 dc         1 CLA      0.037000
    131 H3A        79.9322   59.3218   37.2013 dc         1 CLA      0.041100
    132 H2A        78.9990   56.4878   37.1130 dc         1 CLA      0.083100
    133 H2         82.1011   54.8475   37.7520 da         1 CLA      0.180900
    134 H18        82.6677   61.4329   46.1396 dc         1 CLA     -0.003900
    135 H13        85.5705   57.0870   42.7770 dc         1 CLA      0.019700
    136 H12        80.3368   53.9784   35.5017 dc         1 CLA      0.120400
    137 H11        81.9785   54.1594   34.7964 dc         1 CLA      0.120400
    138 C1         68.0783   61.9249   50.5368 Z1         2 LUT      0.509236
    139 C2         66.7473   61.6122   51.2495 Z2         2 LUT     -0.434695
    140 C3         65.7397   62.7964   51.4921 Z3         2 LUT      0.437453
    141 O3         65.8940   63.0221   52.8895 S1         2 LUT     -0.547129
    142 C4         66.0770   64.0340   50.6797 Z4         2 LUT     -0.468603
    143 C5         66.8145   63.7630   49.4360 Z5         2 LUT      0.279246
    144 C6         67.7661   62.7740   49.3671 Z6         2 LUT     -0.305473
    145 C7         68.0467   62.0861   48.0867 Z7         2 LUT      0.069402
    146 C8         69.0242   62.5965   47.2956 Z8         2 LUT     -0.191631
    147 C9         69.5809   62.1354   45.9952 Z9         2 LUT      0.196698
    148 C10        70.6180   62.8488   45.4226 Y1         2 LUT     -0.208611
    149 C11        71.3410   62.6453   44.1802 Y2         2 LUT      0.030784
    150 C12        72.4763   63.3391   43.7706 Y3         2 LUT     -0.220316
    151 C13        73.3504   63.1248   42.6632 Y4         2 LUT      0.215937
    152 C14        74.4541   64.0159   42.5251 Y5         2 LUT     -0.185793
    153 C15        75.6397   63.8528   41.7540 Y6         2 LUT     -0.057835
    154 C16        68.9027   60.5339   50.2641 Y7         2 LUT     -0.405615
    155 C17        69.1335   62.4740   51.5135 Y7         2 LUT     -0.405615
    156 C18        65.9675   64.1693   48.2198 Y9         2 LUT     -0.369639
    157 C19        68.9218   60.8998   45.3843 W1         2 LUT     -0.333362
    158 C20        72.8642   62.4945   41.4749 W2         2 LUT     -0.323439
    159 C21        87.2704   65.3837   36.1390 Z1         2 LUT      0.406104
    160 C22        87.9133   64.9577   34.7995 Z2         2 LUT     -0.404965
    161 C23        88.2275   66.1062   33.8459 Z3         2 LUT      0.391255
    162 O23        88.7254   65.4915   32.6266 S1         2 LUT     -0.528210
    163 C24        86.9068   66.8785   33.6611 W6         2 LUT     -0.258361
    164 C25        85.8800   66.8986   34.4672 Z5         2 LUT      0.133546
    165 C26        85.8585   65.9812   35.6912 W8         2 LUT     -0.147008
    166 C27        85.0721   66.6093   36.8321 Z7         2 LUT      0.023843
    167 C28        83.8540   66.2387   37.2906 Z8         2 LUT     -0.216987
    168 C29        83.1381   66.7026   38.4505 Z9         2 LUT      0.206524
    169 C30        81.9885   66.0665   38.9046 Y1         2 LUT     -0.215556
    170 C31        81.2136   66.2623   40.1581 Y2         2 LUT      0.025142
    171 C32        80.0768   65.5282   40.4237 Y3         2 LUT     -0.212209
    172 C33        78.9755   65.6434   41.3700 Y4         2 LUT      0.240937
    173 C34        77.9416   64.7567   41.2984 Y5         2 LUT     -0.218862
    174 C35        76.6999   64.7186   41.9598 Y6         2 LUT     -0.023547
    175 C36        88.1670   66.2718   36.9186 Y7         2 LUT     -0.393485
    176 C37        87.2057   64.0754   36.9617 Y7         2 LUT     -0.393485
    177 C38        84.6106   67.7271   34.0337 Y9         2 LUT     -0.387526
    178 C39        83.7468   67.9572   39.1998 W1         2 LUT     -0.322618
    179 C40        79.1800   66.6300   42.4642 W2         2 LUT     -0.358472
    180 H403       78.6980   67.5517   42.1668 R7         2 LUT      0.097720
    181 H402       78.7486   66.2236   43.3863 R7         2 LUT      0.097720
    182 H401       80.2099   66.9425   42.6152 R7         2 LUT      0.097720
    183 H393       84.2725   68.5881   38.4940 R4         2 LUT      0.082505
    184 H392       83.0412   68.5085   39.7639 R4         2 LUT      0.082505
    185 H391       84.3293   67.7001   39.9808 R4         2 LUT      0.082505
    186 H383       83.7365   67.0536   34.0246 R1         2 LUT      0.104030
    187 H382       84.5427   68.5993   34.6975 R1         2 LUT      0.104030
    188 H381       84.6829   68.1517   33.0064 R1         2 LUT      0.104030
    189 H373       86.8794   64.2165   38.0414 T4         2 LUT      0.089537
    190 H372       86.5416   63.3384   36.3861 T4         2 LUT      0.089537
    191 H371       88.2250   63.6335   37.0779 T4         2 LUT      0.089537
    192 H363       89.0635   65.8353   37.3719 T4         2 LUT      0.089537
    193 H362       88.3611   67.1320   36.3265 T4         2 LUT      0.089537
    194 H361       87.6297   66.6846   37.7038 T4         2 LUT      0.089537
    195 H222       88.8053   64.4236   35.0565 U2         2 LUT      0.127376
    196 H221       87.3383   64.1815   34.2945 U2         2 LUT      0.127376
    197 H203       73.7818   62.2185   40.8944 R7         2 LUT      0.087068
    198 H202       72.4114   61.5396   41.6616 R7         2 LUT      0.087068
    199 H201       72.1245   62.9854   40.8739 R7         2 LUT      0.087068
    200 H193       67.8729   61.0672   45.4335 R4         2 LUT      0.089716
    201 H192       69.1999   60.7071   44.3384 R4         2 LUT      0.089716
    202 H191       69.2247   59.9899   45.8621 R4         2 LUT      0.089716
    203 H183       66.4724   64.0039   47.2561 R1         2 LUT      0.094572
    204 H182       64.9771   63.6771   48.1409 R1         2 LUT      0.094572
    205 H181       65.9594   65.2485   48.2966 R1         2 LUT      0.094572
    206 H173       69.3270   61.7915   52.3784 T4         2 LUT      0.093752
    207 H172       70.0772   62.5875   50.9675 T4         2 LUT      0.093752
    208 H171       68.7425   63.4294   51.8855 T4         2 LUT      0.093752
    209 H163       68.2806   59.7808   49.7375 T4         2 LUT      0.093752
    210 H162       69.8506   60.5914   49.7770 T4         2 LUT      0.093752
    211 H161       69.1329   60.0401   51.2128 T4         2 LUT      0.093752
    212 HO3        65.0669   62.6964   53.3463 Q1         2 LUT      0.300121
    213 H8         69.5364   63.4828   47.6517 U7         2 LUT      0.080784
    214 H7         67.4320   61.1681   47.8983 U6         2 LUT      0.042190
    215 H42        65.1331   64.5628   50.4513 U5         2 LUT      0.145166
    216 H41        66.6775   64.7497   51.2600 U5         2 LUT      0.145166
    217 H35        76.6142   65.5587   42.6451 T3         2 LUT      0.077919
    218 H34        77.9967   64.0152   40.5795 T2         2 LUT      0.073626
    219 H32        79.8857   64.7221   39.6987 T1         2 LUT      0.092510
    220 H31        81.4977   67.1430   40.7659 U9         2 LUT      0.070048
    221 H30        81.7502   65.2122   38.3279 U8         2 LUT      0.085442
    222 H3         64.7336   62.5292   51.1364 U3         2 LUT     -0.031596
    223 H28        83.3330   65.5364   36.6501 U7         2 LUT      0.084728
    224 H27        85.6100   67.3199   37.4359 U6         2 LUT      0.087291
    225 H26        85.2644   65.1245   35.3331 Q6         2 LUT      0.075325
    226 H24        86.9675   67.4957   32.8012 Q5         2 LUT      0.094482
    227 H23        89.0461   66.7307   34.1617 U3         2 LUT     -0.024869
    228 H22        66.2778   60.9353   50.5581 U2         2 LUT      0.127376
    229 H21        66.9675   61.0383   52.2447 U2         2 LUT      0.127376
    230 H15        75.7947   63.0867   41.0407 T3         2 LUT      0.093200
    231 H14        74.6737   64.7854   43.3044 T2         2 LUT      0.068865
    232 H12        72.7914   64.1316   44.4433 T1         2 LUT      0.095507
    233 H11        71.1066   61.7633   43.5930 U9         2 LUT      0.068930
    234 H10        71.0041   63.5900   46.0865 U8         2 LUT      0.083911
    235 H1         88.0433   65.0785   32.0542 Q1         2 LUT      0.297311
@<TRIPOS>BOND
    1     6     1 1
    2     7     2 1
    3     8     3 1
    4     9     4 1
    5    11     4 1
    6    12     6 1
    7    13     9 1
    8    16     9 1
    9    25     5 1
   10    25    16 1
   11    26    10 1
   12    26    17 1
   13    27    18 1
   14    28    14 1
   15    28    19 1
   16    29    12 1
   17    30    13 1
   18    31    24 1
   19    32     1 1
   20    32    25 1
   21    33    21 1
   22    33    26 1
   23    34    22 1
   24    34    27 1
   25    35    23 1
   26    35    28 1
   27    36    12 1
   28    36    24 1
   29    37    13 1
   30    37    15 1
   31    38    31 1
   32    39    20 1
   33    39    32 1
   34    40     2 1
   35    40    33 1
   36    41     3 1
   37    41    34 1
   38    42     4 1
   39    42    35 1
   40    43    38 1
   41    44     5 1
   42    44    17 1
   43    44    39 1
   44    45    10 1
   45    45    18 1
   46    45    40 1
   47    46    19 1
   48    46    41 1
   49    47    14 1
   50    47    16 1
   51    47    42 1
   52    48    38 1
   53    49    48 1
   54    50    49 1
   55    51    50 1
   56    52    51 1
   57    53    51 1
   58    54    53 1
   59    55    54 1
   60    56    55 1
   61    57    56 1
   62    58    56 1
   63    59    58 1
   64    60    59 1
   65    61    60 1
   66    62    61 1
   67    63    61 1
   68    64    27 1
   69    64    46 1
   70    65     5 1
   71    65    10 1
   72    65    64 1
   73    65    14 1
   74    66    23 1
   75    67    23 1
   76    68    23 1
   77    69    22 1
   78    70    22 1
   79    71    22 1
   80    72    21 1
   81    73    21 1
   82    74    21 1
   83    75    20 1
   84    76    20 1
   85    77    20 1
   86    78    15 1
   87    79    15 1
   88    80    15 1
   89    81     8 1
   90    82     8 1
   91    83     8 1
   92    84     7 1
   93    85     7 1
   94    86     6 1
   95    87     6 1
   96    88     3 1
   97    89     3 1
   98    90     1 1
   99    91     1 1
  100    92    63 1
  101    93    63 1
  102    94    63 1
  103    95    62 1
  104    96    62 1
  105    97    62 1
  106    98    60 1
  107    99    60 1
  108   100    59 1
  109   101    59 1
  110   102    58 1
  111   103    58 1
  112   104    57 1
  113   105    57 1
  114   106    57 1
  115   107    55 1
  116   108    55 1
  117   109    54 1
  118   110    54 1
  119   111    53 1
  120   112    53 1
  121   113    19 1
  122   114    18 1
  123   115    17 1
  124   116     9 1
  125   117     2 1
  126   118    52 1
  127   119    52 1
  128   120    52 1
  129   121    51 1
  130   122    50 1
  131   123    50 1
  132   124    49 1
  133   125    49 1
  134   126    48 1
  135   127    48 1
  136   128    43 1
  137   129    43 1
  138   130    43 1
  139   131    39 1
  140   132    32 1
  141   133    31 1
  142   134    61 1
  143   135    56 1
  144   136    24 1
  145   137    24 1
  146   139   138 1
  147   140   139 1
  148   141   140 1
  149   142   140 1
  150   143   142 1
  151   144   138 1
  152   144   143 1
  153   145   144 1
  154   146   145 1
  155   147   146 1
  156   148   147 1
  157   149   148 1
  158   150   149 1
  159   151   150 1
  160   152   151 1
  161   153   152 1
  162   154   138 1
  163   155   138 1
  164   156   143 1
  165   157   147 1
  166   158   151 1
  167   160   159 1
  168   161   160 1
  169   162   161 1
  170   163   161 1
  171   164   163 1
  172   165   159 1
  173   165   164 1
  174   166   165 1
  175   167   166 1
  176   168   167 1
  177   169   168 1
  178   170   169 1
  179   171   170 1
  180   172   171 1
  181   173   172 1
  182   174   153 1
  183   174   173 1
  184   175   159 1
  185   176   159 1
  186   177   164 1
  187   178   168 1
  188   179   172 1
  189   180   179 1
  190   181   179 1
  191   182   179 1
  192   183   178 1
  193   184   178 1
  194   185   178 1
  195   186   177 1
  196   187   177 1
  197   188   177 1
  198   189   176 1
  199   190   176 1
  200   191   176 1
  201   192   175 1
  202   193   175 1
  203   194   175 1
  204   195   160 1
  205   196   160 1
  206   197   158 1
  207   198   158 1
  208   199   158 1
  209   200   157 1
  210   201   157 1
  211   202   157 1
  212   203   156 1
  213   204   156 1
  214   205   156 1
  215   206   155 1
  216   207   155 1
  217   208   155 1
  218   209   154 1
  219   210   154 1
  220   211   154 1
  221   212   141 1
  222   213   146 1
  223   214   145 1
  224   215   142 1
  225   216   142 1
  226   217   174 1
  227   218   173 1
  228   219   171 1
  229   220   170 1
  230   221   169 1
  231   222   140 1
  232   223   167 1
  233   224   166 1
  234   225   165 1
  235   226   163 1
  236   227   161 1
  237   228   139 1
  238   229   139 1
  239   230   153 1
  240   231   152 1
  241   232   150 1
  242   233   149 1
  243   234   148 1
  244   235   162 1
  245   65    153 1
  246   65    174 1
@<TRIPOS>SUBSTRUCTURE
      1 CLA               1 ****               0 ****  **** 
      2 LUT             138 ****               0 ****  **** 
