@<TRIPOS>MOLECULE
Cpptraj generated mol2 file.
  235   246     2     0     0
SMALL
USER_CHARGES


@<TRIPOS>ATOM
      1 CAA        76.8003   57.6666   33.4721 a2         1 CLA     -0.055900
      2 CAB        77.2681   60.8137   42.6768 c8         1 CLA     -0.148500
      3 CAC        70.1184   57.4589   42.1542 a2         1 CLA     -0.012600
      4 CAD        72.7933   54.9157   34.7300 ck         1 CLA      0.398800
      5 NA         75.9874   57.8682   36.8559 ns         1 CLA     -0.225500
      6 CBA        78.0136   57.5322   32.5101 a2         1 CLA     -0.135000
      7 CBB        78.4100   60.5467   43.3492 c0         1 CLA     -0.395200
      8 CBC        69.5558   56.0737   41.7442 a3         1 CLA     -0.037700
      9 CBD        74.1909   55.5292   34.3261 a1         1 CLA     -0.053900
     10 NB         76.0151   59.1593   39.5336 nm         1 CLA     -0.295700
     11 OBD        72.1447   54.2099   33.9945 o2         1 CLA     -0.494600
     12 CGA        78.4773   56.1659   32.0830 c4         1 CLA      0.827000
     13 CGD        75.1341   54.3672   33.9036 c4         1 CLA      0.655300
     14 ND         73.3493   56.9145   37.6394 nm         1 CLA     -0.291600
     15 CED        75.9289   52.1923   34.3212 a3         1 CLA      0.005400
     16 CHA        74.6874   56.3190   35.5401 cs         1 CLA     -0.123800
     17 CHB        77.8219   59.1682   37.9258 aa         1 CLA     -0.291900
     18 CHC        74.7951   59.2455   41.6474 aa         1 CLA     -0.090400
     19 CHD        71.5289   56.7248   39.2116 aa         1 CLA     -0.052000
     20 CMA        79.3914   57.1392   35.9329 a3         1 CLA     -0.230700
     21 CMB        79.1423   61.1790   40.0385 a3         1 CLA     -0.180800
     22 CMC        72.2533   59.3866   43.5708 a3         1 CLA     -0.134000
     23 CMD        70.1843   54.8545   37.1159 a3         1 CLA     -0.141100
     24 C1         79.4974   54.0371   32.8484 a2         1 CLA      0.023000
     25 C1A        75.8216   57.0661   35.7550 ac         1 CLA     -0.015100
     26 C1B        77.2834   59.5310   39.1526 cr         1 CLA      0.054700
     27 C1C        73.5885   58.6871   41.3425 cn         1 CLA     -0.005600
     28 C1D        72.1088   56.3995   38.0378 ap         1 CLA     -0.047300
     29 O1A        78.3015   55.7135   30.9626 o2         1 CLA     -0.610800
     30 O1D        75.9876   54.3799   33.0297 o2         1 CLA     -0.558200
     31 C2         79.6940   53.3879   34.1029 c8         1 CLA     -0.325100
     32 C2A        77.0491   57.0530   34.8493 a1         1 CLA      0.098600
     33 C2B        77.8723   60.4201   40.1646 cb         1 CLA      0.088500
     34 C2C        72.4347   58.5711   42.2530 cb         1 CLA      0.053700
     35 C2D        71.5334   55.5472   37.0352 cb         1 CLA      0.058900
     36 O2A        79.0015   55.4068   33.1472 o1         1 CLA     -0.437200
     37 O2D        75.0376   53.2456   34.6889 o1         1 CLA     -0.357600
     38 C3         80.4580   52.2921   34.3529 c5         1 CLA      0.031200
     39 C3A        78.0807   57.9284   35.6452 a1         1 CLA      0.166800
     40 C3B        77.0385   60.2998   41.2934 cb         1 CLA      0.035000
     41 C3C        71.4965   57.7966   41.6008 cb         1 CLA     -0.089900
     42 C3D        72.4504   55.4912   36.0306 cb         1 CLA     -0.035900
     43 C4         79.8603   50.8936   34.3035 a3         1 CLA     -0.053300
     44 C4A        77.2908   58.3827   36.9083 ac         1 CLA      0.001800
     45 C4B        75.8677   59.4829   40.8873 cn         1 CLA     -0.020900
     46 C4C        72.0977   57.4375   40.3061 cr         1 CLA     -0.044400
     47 C4D        73.5572   56.2859   36.4548 c6         1 CLA     -0.046000
     48 C5         81.9424   52.3539   34.3811 a2         1 CLA     -0.070400
     49 C6         82.6756   53.6908   34.5890 a2         1 CLA      0.043900
     50 C7         82.4205   54.2187   35.9803 a2         1 CLA     -0.150000
     51 C8         82.7221   55.7625   36.2287 a1         1 CLA      0.064200
     52 C9         84.1265   56.1778   35.6463 a3         1 CLA     -0.259300
     53 C10        82.7943   56.1323   37.8127 a2         1 CLA     -0.071900
     54 C11        81.5146   56.0348   38.6933 a2         1 CLA      0.014500
     55 C12        81.8053   56.4571   40.1806 a2         1 CLA     -0.112100
     56 C13        80.6391   56.1358   41.1853 a1         1 CLA      0.089200
     57 C14        79.3413   56.8915   40.9896 a3         1 CLA     -0.239100
     58 C15        81.1217   56.2843   42.7231 a2         1 CLA     -0.102200
     59 C16        81.9136   57.5707   43.0711 a2         1 CLA      0.023900
     60 C17        82.2011   57.6156   44.5439 a2         1 CLA     -0.105700
     61 C18        83.2298   58.7598   44.9192 a1         1 CLA      0.206800
     62 C19        84.5402   58.8813   44.0948 a3         1 CLA     -0.280100
     63 C20        82.4172   60.0379   44.6180 a3         1 CLA     -0.280100
     64 NC         73.3133   58.1193   40.1447 nx         1 CLA     -0.309200
     65 MG         74.5899   58.1217   38.5164 mg         1 CLA      0.895000
     66 HMD3       70.0811   54.2282   37.9929 dc         1 CLA      0.064300
     67 HMD2       69.3678   55.5924   37.1589 dc         1 CLA      0.064300
     68 HMD1       70.0977   54.2017   36.2700 dc         1 CLA      0.064300
     69 HMC3       72.7593   60.3131   43.4001 dc         1 CLA      0.052100
     70 HMC2       71.2930   59.6268   43.9065 dc         1 CLA      0.052100
     71 HMC1       72.8915   58.9508   44.3589 dc         1 CLA      0.052100
     72 HMB3       79.9613   60.5082   39.7843 dc         1 CLA      0.063600
     73 HMB2       79.0990   61.7454   39.0618 dc         1 CLA      0.063600
     74 HMB1       79.3872   61.8934   40.7432 dc         1 CLA      0.063600
     75 HMA3       79.9264   56.8741   34.9864 dc         1 CLA      0.058300
     76 HMA2       79.9952   57.8497   36.4934 dc         1 CLA      0.058300
     77 HMA1       79.1403   56.1804   36.5043 dc         1 CLA      0.058300
     78 HED3       76.9773   52.4243   34.3155 dc         1 CLA      0.079300
     79 HED2       75.6584   51.2857   34.8823 dc         1 CLA      0.079300
     80 HED1       75.7358   51.8805   33.2845 dc         1 CLA      0.079300
     81 HBC3       69.2348   56.2167   40.7319 dc         1 CLA      0.016300
     82 HBC2       70.2229   55.2657   41.6680 dc         1 CLA      0.016300
     83 HBC1       68.7318   55.6554   42.3774 dc         1 CLA      0.016300
     84 HBB2       78.5781   60.9026   44.3931 da         1 CLA      0.183000
     85 HBB1       79.2758   59.9656   42.9453 da         1 CLA      0.183000
     86 HBA2       77.6301   58.0153   31.6481 dc         1 CLA      0.029400
     87 HBA1       78.8411   58.1029   32.8814 dc         1 CLA      0.029400
     88 HAC2       70.0547   57.4077   43.1745 dc         1 CLA      0.029300
     89 HAC1       69.3930   58.2258   41.8906 dc         1 CLA      0.029300
     90 HAA2       75.9360   57.2455   33.0653 dc         1 CLA      0.028700
     91 HAA1       76.5333   58.7572   33.5552 dc         1 CLA      0.028700
     92 H203       82.9411   60.9237   44.9352 dc         1 CLA      0.065600
     93 H202       82.4210   60.2246   43.4940 dc         1 CLA      0.065600
     94 H201       81.3689   59.9804   44.8965 dc         1 CLA      0.065600
     95 H193       84.3440   58.9756   43.0426 dc         1 CLA      0.065600
     96 H192       84.9192   59.8627   44.3946 dc         1 CLA      0.065600
     97 H191       85.2099   58.0569   44.3343 dc         1 CLA      0.065600
     98 H172       81.3156   57.6754   45.1776 dc         1 CLA      0.027600
     99 H171       82.8211   56.7288   44.8820 dc         1 CLA      0.027600
    100 H162       82.7159   57.8218   42.3467 dc         1 CLA      0.002900
    101 H161       81.2207   58.3729   42.9208 dc         1 CLA      0.002900
    102 H152       80.3564   56.2029   43.4375 dc         1 CLA      0.029100
    103 H151       81.7460   55.3693   42.9437 dc         1 CLA      0.029100
    104 H143       78.5691   56.4896   41.6626 dc         1 CLA      0.063600
    105 H142       79.4668   57.9434   41.2837 dc         1 CLA      0.063600
    106 H141       79.0115   56.8618   40.0281 dc         1 CLA      0.063600
    107 H122       82.7232   55.8807   40.4934 dc         1 CLA      0.032500
    108 H121       82.0606   57.5204   40.1252 dc         1 CLA      0.032500
    109 H112       80.7802   56.7778   38.2665 dc         1 CLA      0.006600
    110 H111       81.2113   54.9915   38.5264 dc         1 CLA      0.006600
    111 H102       83.6441   55.5359   38.2735 dc         1 CLA      0.024100
    112 H101       83.0684   57.1976   37.7885 dc         1 CLA      0.024100
    113 HHD        70.4932   56.4101   39.2584 da         1 CLA      0.174300
    114 HHC        74.8950   59.4135   42.7535 da         1 CLA      0.136800
    115 HHB        78.8352   59.5119   37.7390 da         1 CLA      0.138300
    116 HBD        74.0098   56.2596   33.5510 dc         1 CLA      0.107700
    117 HAB        76.4943   61.3373   43.2200 da         1 CLA      0.155200
    118 H93        84.1652   56.0129   34.5489 dc         1 CLA      0.069500
    119 H92        84.1869   57.2696   35.6706 dc         1 CLA      0.069500
    120 H91        84.8988   55.6003   36.1901 dc         1 CLA      0.069500
    121 H8         81.9403   56.2878   35.6723 dc         1 CLA      0.029300
    122 H72        81.3937   54.0174   36.2334 dc         1 CLA      0.044400
    123 H71        83.1079   53.6882   36.6121 dc         1 CLA      0.044400
    124 H62        83.7748   53.6330   34.4504 dc         1 CLA      0.015600
    125 H61        82.2117   54.3899   33.9312 dc         1 CLA      0.015600
    126 H52        82.2732   51.6683   35.1180 dc         1 CLA      0.033200
    127 H51        82.1935   51.9706   33.3836 dc         1 CLA      0.033200
    128 H43        78.8430   51.0019   34.1273 dc         1 CLA      0.037000
    129 H42        80.2471   50.3477   33.4720 dc         1 CLA      0.037000
    130 H41        79.9159   50.3038   35.2512 dc         1 CLA      0.037000
    131 H3A        78.3369   58.8157   35.1795 dc         1 CLA      0.041100
    132 H2A        77.3983   56.0053   34.6547 dc         1 CLA      0.083100
    133 H2         79.4305   54.0101   34.9957 da         1 CLA      0.180900
    134 H18        83.3704   58.7317   45.9758 dc         1 CLA     -0.003900
    135 H13        80.3818   55.0551   41.1242 dc         1 CLA      0.019700
    136 H12        78.7280   53.4840   32.3198 dc         1 CLA      0.120400
    137 H11        80.4292   54.0978   32.2835 dc         1 CLA      0.120400
    138 C1         66.9083   61.7057   49.4971 Z1         2 LUT      0.509236
    139 C2         67.0086   63.0372   50.3196 Z2         2 LUT     -0.434695
    140 C3         65.6935   63.7717   50.5260 Z3         2 LUT      0.437453
    141 O3         66.1264   65.1002   50.9382 S1         2 LUT     -0.547129
    142 C4         64.9688   63.8029   49.1857 Z4         2 LUT     -0.468603
    143 C5         65.6256   63.1259   48.0736 Z5         2 LUT      0.279246
    144 C6         66.3826   61.9979   48.1883 Z6         2 LUT     -0.305473
    145 C7         66.9938   61.5848   46.9031 Z7         2 LUT      0.069402
    146 C8         68.2203   61.9466   46.4609 Z8         2 LUT     -0.191631
    147 C9         68.5360   61.8104   45.0483 Z9         2 LUT      0.196698
    148 C10        69.5778   62.5605   44.6253 Y1         2 LUT     -0.208611
    149 C11        70.1684   62.5170   43.3204 Y2         2 LUT      0.030784
    150 C12        71.4045   63.0295   43.1669 Y3         2 LUT     -0.220316
    151 C13        72.1827   62.8409   41.9908 Y4         2 LUT      0.215937
    152 C14        73.4379   63.4029   42.0095 Y5         2 LUT     -0.185793
    153 C15        74.4662   63.2842   41.0144 Y6         2 LUT     -0.057835
    154 C16        65.8484   60.7415   50.2542 Y7         2 LUT     -0.405615
    155 C17        68.3041   60.9791   49.5445 Y7         2 LUT     -0.405615
    156 C18        65.3759   63.9122   46.7951 Y9         2 LUT     -0.369639
    157 C19        67.8176   60.7829   44.1367 W1         2 LUT     -0.333362
    158 C20        71.6337   62.1600   40.7097 W2         2 LUT     -0.323439
    159 C21        85.5508   64.5754   34.2920 Z1         2 LUT      0.406104
    160 C22        86.1468   63.7800   33.1865 Z2         2 LUT     -0.404965
    161 C23        86.3677   64.4809   31.9066 Z3         2 LUT      0.391255
    162 O23        86.7803   63.5263   30.9267 S1         2 LUT     -0.528210
    163 C24        85.3323   65.5309   31.5426 W6         2 LUT     -0.258361
    164 C25        84.3537   65.9693   32.3644 Z5         2 LUT      0.133546
    165 C26        84.2192   65.1861   33.6595 W8         2 LUT     -0.147008
    166 C27        83.3625   65.8518   34.7334 Z7         2 LUT      0.023843
    167 C28        82.2735   65.2840   35.2935 Z8         2 LUT     -0.216987
    168 C29        81.8246   65.4515   36.7202 Z9         2 LUT      0.206524
    169 C30        80.6144   64.8891   37.0544 Y1         2 LUT     -0.215556
    170 C31        79.8977   64.8352   38.2376 Y2         2 LUT      0.025142
    171 C32        78.6610   64.3718   38.5268 Y3         2 LUT     -0.212209
    172 C33        77.8941   64.4713   39.7531 Y4         2 LUT      0.240937
    173 C34        76.5688   63.8779   39.8501 Y5         2 LUT     -0.218862
    174 C35        75.6957   63.8949   41.0019 Y6         2 LUT     -0.023547
    175 C36        86.5226   65.6679   34.8270 Y7         2 LUT     -0.393485
    176 C37        84.9544   63.6629   35.5032 Y7         2 LUT     -0.393485
    177 C38        83.2488   66.9485   31.9260 Y9         2 LUT     -0.387526
    178 C39        82.6900   66.1658   37.6514 W1         2 LUT     -0.322618
    179 C40        78.4409   65.4937   40.6806 W2         2 LUT     -0.358472
    180 H403       79.3051   65.0697   41.2827 R7         2 LUT      0.097720
    181 H402       78.8741   66.4594   40.2120 R7         2 LUT      0.097720
    182 H401       77.7508   65.9354   41.4379 R7         2 LUT      0.097720
    183 H393       83.6833   65.7502   37.7701 R4         2 LUT      0.082505
    184 H392       82.8355   67.1684   37.3201 R4         2 LUT      0.082505
    185 H391       82.2954   66.2350   38.7050 R4         2 LUT      0.082505
    186 H383       83.1599   67.7436   32.6768 R1         2 LUT      0.104030
    187 H382       83.4775   67.4456   30.9872 R1         2 LUT      0.104030
    188 H381       82.2657   66.4191   31.8381 R1         2 LUT      0.104030
    189 H373       83.9791   63.1612   35.2446 T4         2 LUT      0.089537
    190 H372       85.6469   62.8213   35.5768 T4         2 LUT      0.089537
    191 H371       84.7721   64.2094   36.4571 T4         2 LUT      0.089537
    192 H363       87.1841   65.3110   35.6104 T4         2 LUT      0.089537
    193 H362       87.2801   65.8184   34.0385 T4         2 LUT      0.089537
    194 H361       86.0528   66.5596   35.1018 T4         2 LUT      0.089537
    195 H222       87.1158   63.2101   33.4689 U2         2 LUT      0.127376
    196 H221       85.4946   62.9134   32.9203 U2         2 LUT      0.127376
    197 H203       72.1292   62.5590   39.7923 R7         2 LUT      0.087068
    198 H202       71.9017   61.1046   40.7357 R7         2 LUT      0.087068
    199 H201       70.6096   62.2953   40.5398 R7         2 LUT      0.087068
    200 H193       68.4124   60.4879   43.3209 R4         2 LUT      0.089716
    201 H192       67.6181   59.8731   44.7203 R4         2 LUT      0.089716
    202 H191       66.9329   61.1555   43.6902 R4         2 LUT      0.089716
    203 H183       64.2947   64.1410   46.8366 R1         2 LUT      0.094572
    204 H182       65.9449   64.8450   46.8306 R1         2 LUT      0.094572
    205 H181       65.5168   63.4548   45.7693 R1         2 LUT      0.094572
    206 H173       69.0874   61.6205   49.2266 T4         2 LUT      0.093752
    207 H172       68.5458   60.6153   50.6009 T4         2 LUT      0.093752
    208 H171       68.4281   60.0845   48.9079 T4         2 LUT      0.093752
    209 H163       66.1545   60.6122   51.3158 T4         2 LUT      0.093752
    210 H162       64.8445   61.0859   50.2130 T4         2 LUT      0.093752
    211 H161       65.8897   59.7940   49.7039 T4         2 LUT      0.093752
    212 HO3        65.4777   65.3528   51.6344 Q1         2 LUT      0.300121
    213 H8         68.9121   62.6180   47.0135 U7         2 LUT      0.080784
    214 H7         66.3166   61.1625   46.1417 U6         2 LUT      0.042190
    215 H42        64.0063   63.4020   49.1500 U5         2 LUT      0.145166
    216 H41        64.6174   64.8421   48.9049 U5         2 LUT      0.145166
    217 H35        75.9088   64.5288   41.8580 T3         2 LUT      0.077919
    218 H34        76.1226   63.2733   39.0516 T2         2 LUT      0.073626
    219 H32        78.1875   63.9893   37.5395 T1         2 LUT      0.092510
    220 H31        80.4757   65.2964   39.0245 U9         2 LUT      0.070048
    221 H30        80.0637   64.4153   36.2062 U8         2 LUT      0.085442
    222 H3         65.0631   63.2493   51.2204 U3         2 LUT     -0.031596
    223 H28        81.8629   64.5252   34.6411 U7         2 LUT      0.084728
    224 H27        83.9706   66.5853   35.2785 U6         2 LUT      0.087291
    225 H26        83.7252   64.2256   33.3020 Q6         2 LUT      0.075325
    226 H24        85.3967   65.8443   30.4888 Q5         2 LUT      0.094482
    227 H23        87.2206   65.1597   32.1295 U3         2 LUT     -0.024869
    228 H22        67.5327   63.0271   51.2119 U2         2 LUT      0.127376
    229 H21        67.6352   63.7035   49.6245 U2         2 LUT      0.127376
    230 H15        74.2138   62.5731   40.1913 T3         2 LUT      0.093200
    231 H14        73.7613   64.0536   42.8316 T2         2 LUT      0.068865
    232 H12        71.8533   63.4815   44.0152 T1         2 LUT      0.095507
    233 H11        69.6426   62.1524   42.5505 U9         2 LUT      0.068930
    234 H10        70.0776   63.1989   45.3742 U8         2 LUT      0.083911
    235 H1         86.5291   63.7150   29.9616 Q1         2 LUT      0.297311
@<TRIPOS>BOND
    1     6     1 1
    2     7     2 1
    3     8     3 1
    4     9     4 1
    5    11     4 1
    6    12     6 1
    7    13     9 1
    8    16     9 1
    9    25     5 1
   10    25    16 1
   11    26    10 1
   12    26    17 1
   13    27    18 1
   14    28    14 1
   15    28    19 1
   16    29    12 1
   17    30    13 1
   18    31    24 1
   19    32     1 1
   20    32    25 1
   21    33    21 1
   22    33    26 1
   23    34    22 1
   24    34    27 1
   25    35    23 1
   26    35    28 1
   27    36    12 1
   28    36    24 1
   29    37    13 1
   30    37    15 1
   31    38    31 1
   32    39    20 1
   33    39    32 1
   34    40     2 1
   35    40    33 1
   36    41     3 1
   37    41    34 1
   38    42     4 1
   39    42    35 1
   40    43    38 1
   41    44     5 1
   42    44    17 1
   43    44    39 1
   44    45    10 1
   45    45    18 1
   46    45    40 1
   47    46    19 1
   48    46    41 1
   49    47    14 1
   50    47    16 1
   51    47    42 1
   52    48    38 1
   53    49    48 1
   54    50    49 1
   55    51    50 1
   56    52    51 1
   57    53    51 1
   58    54    53 1
   59    55    54 1
   60    56    55 1
   61    57    56 1
   62    58    56 1
   63    59    58 1
   64    60    59 1
   65    61    60 1
   66    62    61 1
   67    63    61 1
   68    64    27 1
   69    64    46 1
   70    65     5 1
   71    65    10 1
   72    65    64 1
   73    65    14 1
   74    66    23 1
   75    67    23 1
   76    68    23 1
   77    69    22 1
   78    70    22 1
   79    71    22 1
   80    72    21 1
   81    73    21 1
   82    74    21 1
   83    75    20 1
   84    76    20 1
   85    77    20 1
   86    78    15 1
   87    79    15 1
   88    80    15 1
   89    81     8 1
   90    82     8 1
   91    83     8 1
   92    84     7 1
   93    85     7 1
   94    86     6 1
   95    87     6 1
   96    88     3 1
   97    89     3 1
   98    90     1 1
   99    91     1 1
  100    92    63 1
  101    93    63 1
  102    94    63 1
  103    95    62 1
  104    96    62 1
  105    97    62 1
  106    98    60 1
  107    99    60 1
  108   100    59 1
  109   101    59 1
  110   102    58 1
  111   103    58 1
  112   104    57 1
  113   105    57 1
  114   106    57 1
  115   107    55 1
  116   108    55 1
  117   109    54 1
  118   110    54 1
  119   111    53 1
  120   112    53 1
  121   113    19 1
  122   114    18 1
  123   115    17 1
  124   116     9 1
  125   117     2 1
  126   118    52 1
  127   119    52 1
  128   120    52 1
  129   121    51 1
  130   122    50 1
  131   123    50 1
  132   124    49 1
  133   125    49 1
  134   126    48 1
  135   127    48 1
  136   128    43 1
  137   129    43 1
  138   130    43 1
  139   131    39 1
  140   132    32 1
  141   133    31 1
  142   134    61 1
  143   135    56 1
  144   136    24 1
  145   137    24 1
  146   139   138 1
  147   140   139 1
  148   141   140 1
  149   142   140 1
  150   143   142 1
  151   144   138 1
  152   144   143 1
  153   145   144 1
  154   146   145 1
  155   147   146 1
  156   148   147 1
  157   149   148 1
  158   150   149 1
  159   151   150 1
  160   152   151 1
  161   153   152 1
  162   154   138 1
  163   155   138 1
  164   156   143 1
  165   157   147 1
  166   158   151 1
  167   160   159 1
  168   161   160 1
  169   162   161 1
  170   163   161 1
  171   164   163 1
  172   165   159 1
  173   165   164 1
  174   166   165 1
  175   167   166 1
  176   168   167 1
  177   169   168 1
  178   170   169 1
  179   171   170 1
  180   172   171 1
  181   173   172 1
  182   174   153 1
  183   174   173 1
  184   175   159 1
  185   176   159 1
  186   177   164 1
  187   178   168 1
  188   179   172 1
  189   180   179 1
  190   181   179 1
  191   182   179 1
  192   183   178 1
  193   184   178 1
  194   185   178 1
  195   186   177 1
  196   187   177 1
  197   188   177 1
  198   189   176 1
  199   190   176 1
  200   191   176 1
  201   192   175 1
  202   193   175 1
  203   194   175 1
  204   195   160 1
  205   196   160 1
  206   197   158 1
  207   198   158 1
  208   199   158 1
  209   200   157 1
  210   201   157 1
  211   202   157 1
  212   203   156 1
  213   204   156 1
  214   205   156 1
  215   206   155 1
  216   207   155 1
  217   208   155 1
  218   209   154 1
  219   210   154 1
  220   211   154 1
  221   212   141 1
  222   213   146 1
  223   214   145 1
  224   215   142 1
  225   216   142 1
  226   217   174 1
  227   218   173 1
  228   219   171 1
  229   220   170 1
  230   221   169 1
  231   222   140 1
  232   223   167 1
  233   224   166 1
  234   225   165 1
  235   226   163 1
  236   227   161 1
  237   228   139 1
  238   229   139 1
  239   230   153 1
  240   231   152 1
  241   232   150 1
  242   233   149 1
  243   234   148 1
  244   235   162 1
  245   65    153 1
  246   65    174 1
@<TRIPOS>SUBSTRUCTURE
      1 CLA               1 ****               0 ****  **** 
      2 LUT             138 ****               0 ****  **** 
