@<TRIPOS>MOLECULE
Cpptraj generated mol2 file.
  235   246     2     0     0
SMALL
USER_CHARGES


@<TRIPOS>ATOM
      1 CAA        80.1251   58.5078   34.8555 a2         1 CLA     -0.055900
      2 CAB        79.7718   62.5397   43.7767 c8         1 CLA     -0.148500
      3 CAC        73.0059   58.4416   43.0918 a2         1 CLA     -0.012600
      4 CAD        75.9892   55.9548   36.1140 ck         1 CLA      0.398800
      5 NA         79.0257   59.0877   38.1319 ns         1 CLA     -0.225500
      6 CBA        81.3955   58.0688   34.0644 a2         1 CLA     -0.135000
      7 CBB        80.7032   62.2434   44.6666 c0         1 CLA     -0.395200
      8 CBC        73.2498   56.9256   43.3645 a3         1 CLA     -0.037700
      9 CBD        77.4486   56.4891   35.7837 a1         1 CLA     -0.053900
     10 NB         78.7877   60.6173   40.7031 nm         1 CLA     -0.295700
     11 OBD        75.3720   55.1021   35.4953 o2         1 CLA     -0.494600
     12 CGA        81.7542   56.6254   33.7958 c4         1 CLA      0.827000
     13 CGD        78.4169   55.3636   35.7223 c4         1 CLA      0.655300
     14 ND         76.1874   58.1632   38.7797 nm         1 CLA     -0.291600
     15 CED        79.7903   53.8986   36.9934 a3         1 CLA      0.005400
     16 CHA        77.7635   57.4572   36.8951 cs         1 CLA     -0.123800
     17 CHB        80.7504   60.4889   39.1573 aa         1 CLA     -0.291900
     18 CHC        77.3197   60.9940   42.5873 aa         1 CLA     -0.090400
     19 CHD        74.2451   58.0785   40.2018 aa         1 CLA     -0.052000
     20 CMA        82.2926   58.2021   37.7816 a3         1 CLA     -0.230700
     21 CMB        82.1313   62.2477   41.4338 a3         1 CLA     -0.180800
     22 CMC        75.1094   60.4527   44.6729 a3         1 CLA     -0.134000
     23 CMD        73.0225   56.0528   38.2430 a3         1 CLA     -0.141100
     24 C1         82.8393   54.7511   34.8153 a2         1 CLA      0.023000
     25 C1A        78.8979   58.1601   37.1292 ac         1 CLA     -0.015100
     26 C1B        80.1472   60.9167   40.3713 cr         1 CLA      0.054700
     27 C1C        76.1878   60.2991   42.2527 cn         1 CLA     -0.005600
     28 C1D        74.8946   57.7689   39.0498 ap         1 CLA     -0.047300
     29 O1A        81.4750   55.9670   32.7615 o2         1 CLA     -0.610800
     30 O1D        78.7186   54.7640   34.6621 o2         1 CLA     -0.558200
     31 C2         83.7233   54.4461   35.9847 c8         1 CLA     -0.325100
     32 C2A        80.1790   58.1064   36.3391 a1         1 CLA      0.098600
     33 C2B        80.7300   61.7190   41.4325 cb         1 CLA      0.088500
     34 C2C        75.1165   60.0260   43.1991 cb         1 CLA      0.053700
     35 C2D        74.4137   56.7675   38.1298 cb         1 CLA      0.058900
     36 O2A        82.4748   56.1423   34.8390 o1         1 CLA     -0.437200
     37 O2D        78.8064   54.9944   36.9109 o1         1 CLA     -0.357600
     38 C3         85.0353   54.3919   35.8581 c5         1 CLA      0.031200
     39 C3A        81.1603   59.0276   37.0917 a1         1 CLA      0.166800
     40 C3B        79.7267   61.8909   42.4486 cb         1 CLA      0.035000
     41 C3C        74.2718   59.1114   42.4865 cb         1 CLA     -0.089900
     42 C3D        75.5226   56.6780   37.2621 cb         1 CLA     -0.035900
     43 C4         85.6605   53.1163   35.3712 a3         1 CLA     -0.053300
     44 C4A        80.2620   59.6092   38.1997 ac         1 CLA      0.001800
     45 C4B        78.5839   61.1141   41.9590 cn         1 CLA     -0.020900
     46 C4C        74.7411   58.9512   41.1647 cr         1 CLA     -0.044400
     47 C4D        76.5914   57.5064   37.7175 c6         1 CLA     -0.046000
     48 C5         85.9332   55.5503   36.0137 a2         1 CLA     -0.070400
     49 C6         86.3768   55.6792   37.4719 a2         1 CLA      0.043900
     50 C7         86.9409   57.0824   37.7140 a2         1 CLA     -0.150000
     51 C8         87.8217   57.3543   38.9327 a1         1 CLA      0.064200
     52 C9         89.1342   56.3743   38.8709 a3         1 CLA     -0.259300
     53 C10        87.0881   57.3082   40.3623 a2         1 CLA     -0.071900
     54 C11        87.8879   58.0469   41.4494 a2         1 CLA      0.014500
     55 C12        87.4551   57.5026   42.7704 a2         1 CLA     -0.112100
     56 C13        88.0030   58.3541   43.9196 a1         1 CLA      0.089200
     57 C14        89.5153   58.4355   43.9615 a3         1 CLA     -0.239100
     58 C15        87.5205   58.0614   45.3698 a2         1 CLA     -0.102200
     59 C16        87.2801   59.3394   46.2631 a2         1 CLA      0.023900
     60 C17        85.8817   60.0471   46.1638 a2         1 CLA     -0.105700
     61 C18        84.6989   59.4158   46.9904 a1         1 CLA      0.206800
     62 C19        85.0236   59.5576   48.5323 a3         1 CLA     -0.280100
     63 C20        83.4203   60.1926   46.5948 a3         1 CLA     -0.280100
     64 NC         75.9415   59.6863   41.0575 nx         1 CLA     -0.309200
     65 MG         77.4439   59.5317   39.6708 mg         1 CLA      0.895000
     66 HMD3       72.2272   56.8583   38.2959 dc         1 CLA      0.064300
     67 HMD2       72.8900   55.4642   37.3335 dc         1 CLA      0.064300
     68 HMD1       72.8983   55.3232   39.0028 dc         1 CLA      0.064300
     69 HMC3       74.2533   60.1547   45.2612 dc         1 CLA      0.052100
     70 HMC2       75.9266   60.0268   45.2862 dc         1 CLA      0.052100
     71 HMC1       75.2048   61.5461   44.7083 dc         1 CLA      0.052100
     72 HMB3       82.4126   62.4635   40.4358 dc         1 CLA      0.063600
     73 HMB2       82.1480   63.1854   41.9572 dc         1 CLA      0.063600
     74 HMB1       82.9187   61.5443   41.8689 dc         1 CLA      0.063600
     75 HMA3       81.7877   57.4695   38.4552 dc         1 CLA      0.058300
     76 HMA2       82.9373   57.8374   36.9837 dc         1 CLA      0.058300
     77 HMA1       82.8396   58.8744   38.3866 dc         1 CLA      0.058300
     78 HED3       80.7796   54.3096   37.2255 dc         1 CLA      0.079300
     79 HED2       79.4771   53.2294   37.7688 dc         1 CLA      0.079300
     80 HED1       80.0111   53.3648   36.0953 dc         1 CLA      0.079300
     81 HBC3       73.6629   56.5847   42.3484 dc         1 CLA      0.016300
     82 HBC2       74.0501   56.8329   44.1463 dc         1 CLA      0.016300
     83 HBC1       72.2683   56.5115   43.6472 dc         1 CLA      0.016300
     84 HBB2       80.7886   62.7171   45.6286 da         1 CLA      0.183000
     85 HBB1       81.5173   61.6218   44.3423 da         1 CLA      0.183000
     86 HBA2       81.4121   58.5642   33.0512 dc         1 CLA      0.029400
     87 HBA1       82.2896   58.4214   34.5274 dc         1 CLA      0.029400
     88 HAC2       72.6823   58.9809   43.9515 dc         1 CLA      0.029300
     89 HAC1       72.1205   58.6016   42.4556 dc         1 CLA      0.029300
     90 HAA2       79.3875   57.8682   34.6539 dc         1 CLA      0.028700
     91 HAA1       79.8827   59.5013   34.6055 dc         1 CLA      0.028700
     92 H203       83.5504   61.2670   46.7613 dc         1 CLA      0.065600
     93 H202       83.1261   60.1474   45.5358 dc         1 CLA      0.065600
     94 H201       82.6104   59.7644   47.1129 dc         1 CLA      0.065600
     95 H193       85.9064   58.9004   48.7621 dc         1 CLA      0.065600
     96 H192       85.2120   60.5843   48.7940 dc         1 CLA      0.065600
     97 H191       84.1405   59.1973   49.0838 dc         1 CLA      0.065600
     98 H172       86.0461   61.1044   46.4750 dc         1 CLA      0.027600
     99 H171       85.7057   60.0581   45.0786 dc         1 CLA      0.027600
    100 H162       87.4225   59.0752   47.3217 dc         1 CLA      0.002900
    101 H161       88.1116   59.9450   46.0004 dc         1 CLA      0.002900
    102 H152       86.5974   57.4578   45.4391 dc         1 CLA      0.029100
    103 H151       88.1772   57.3389   45.8848 dc         1 CLA      0.029100
    104 H143       89.8507   58.7777   44.8998 dc         1 CLA      0.063600
    105 H142       89.9792   57.4604   43.6825 dc         1 CLA      0.063600
    106 H141       89.8015   59.2290   43.2174 dc         1 CLA      0.063600
    107 H122       86.3525   57.3396   42.8566 dc         1 CLA      0.032500
    108 H121       87.8584   56.4628   42.8998 dc         1 CLA      0.032500
    109 H112       88.9295   57.9149   41.2514 dc         1 CLA      0.006600
    110 H111       87.7529   59.0965   41.4260 dc         1 CLA      0.006600
    111 H102       86.0410   57.6389   40.3527 dc         1 CLA      0.024100
    112 H101       87.1037   56.2358   40.6554 dc         1 CLA      0.024100
    113 HHD        73.3561   57.4723   40.4525 da         1 CLA      0.174300
    114 HHC        77.3987   61.5493   43.4295 da         1 CLA      0.136800
    115 HHB        81.7269   60.8249   38.8842 da         1 CLA      0.138300
    116 HBD        77.4742   56.9772   34.7897 dc         1 CLA      0.107700
    117 HAB        79.0476   63.2471   44.1159 da         1 CLA      0.155200
    118 H93        89.8874   56.8706   39.3541 dc         1 CLA      0.069500
    119 H92        88.9568   55.4368   39.4382 dc         1 CLA      0.069500
    120 H91        89.3378   56.1489   37.8067 dc         1 CLA      0.069500
    121 H8         88.1740   58.3483   38.7895 dc         1 CLA      0.029300
    122 H72        87.5413   57.1916   36.7946 dc         1 CLA      0.044400
    123 H71        86.0709   57.7556   37.6077 dc         1 CLA      0.044400
    124 H62        85.6801   55.4522   38.2447 dc         1 CLA      0.015600
    125 H61        87.2052   54.9901   37.6347 dc         1 CLA      0.015600
    126 H52        86.8110   55.4862   35.3344 dc         1 CLA      0.033200
    127 H51        85.2643   56.3166   35.8415 dc         1 CLA      0.033200
    128 H43        85.6847   53.0176   34.3183 dc         1 CLA      0.037000
    129 H42        86.6630   53.0590   35.7821 dc         1 CLA      0.037000
    130 H41        85.0812   52.2627   35.6028 dc         1 CLA      0.037000
    131 H3A        81.6412   59.7582   36.4433 dc         1 CLA      0.041100
    132 H2A        80.5523   57.1314   36.4472 dc         1 CLA      0.083100
    133 H2         83.1890   54.0264   36.8873 da         1 CLA      0.180900
    134 H18        84.6899   58.3873   46.6305 dc         1 CLA     -0.003900
    135 H13        87.7021   59.3493   43.6871 dc         1 CLA      0.019700
    136 H12        81.9583   54.1469   34.8818 dc         1 CLA      0.120400
    137 H11        83.3287   54.5519   33.8616 dc         1 CLA      0.120400
    138 C1         70.0834   62.3798   50.4183 Z1         2 LUT      0.509236
    139 C2         68.5844   62.2145   51.0077 Z2         2 LUT     -0.434695
    140 C3         67.7058   63.4226   51.3242 Z3         2 LUT      0.437453
    141 O3         67.1243   63.4890   52.6612 S1         2 LUT     -0.547129
    142 C4         68.3839   64.6440   50.7474 Z4         2 LUT     -0.468603
    143 C5         69.1645   64.3760   49.4011 Z5         2 LUT      0.279246
    144 C6         70.0775   63.4136   49.3288 Z6         2 LUT     -0.305473
    145 C7         70.3228   62.8811   47.9963 Z7         2 LUT      0.069402
    146 C8         71.2372   63.3757   47.1015 Z8         2 LUT     -0.191631
    147 C9         71.5951   62.9082   45.7349 Z9         2 LUT      0.196698
    148 C10        72.4082   63.6792   44.9382 Y1         2 LUT     -0.208611
    149 C11        73.0782   63.4749   43.7301 Y2         2 LUT      0.030784
    150 C12        74.2241   64.1682   43.4613 Y3         2 LUT     -0.220316
    151 C13        75.1419   63.9198   42.3741 Y4         2 LUT      0.215937
    152 C14        76.4224   64.4440   42.4393 Y5         2 LUT     -0.185793
    153 C15        77.4626   64.4126   41.4430 Y6         2 LUT     -0.057835
    154 C16        70.5017   60.9203   50.0978 Y7         2 LUT     -0.405615
    155 C17        70.9511   62.8343   51.6462 Y7         2 LUT     -0.405615
    156 C18        68.3789   64.9907   48.2681 Y9         2 LUT     -0.369639
    157 C19        71.3144   61.4672   45.3334 W1         2 LUT     -0.333362
    158 C20        74.7617   63.0506   41.2551 W2         2 LUT     -0.323439
    159 C21        88.9154   65.7376   34.9264 Z1         2 LUT      0.406104
    160 C22        89.6342   65.2065   33.6527 Z2         2 LUT     -0.404965
    161 C23        89.5976   66.2440   32.5595 Z3         2 LUT      0.391255
    162 O23        90.3483   65.7703   31.3751 S1         2 LUT     -0.528210
    163 C24        88.1533   66.6835   32.3080 W6         2 LUT     -0.258361
    164 C25        87.1706   66.6317   33.1594 Z5         2 LUT      0.133546
    165 C26        87.4275   65.9679   34.5158 W8         2 LUT     -0.147008
    166 C27        86.6984   66.7491   35.6597 Z7         2 LUT      0.023843
    167 C28        85.5796   66.3169   36.2918 Z8         2 LUT     -0.216987
    168 C29        84.7136   66.7845   37.4256 Z9         2 LUT      0.206524
    169 C30        83.7064   65.8807   37.8341 Y1         2 LUT     -0.215556
    170 C31        82.9081   66.0783   38.9742 Y2         2 LUT      0.025142
    171 C32        81.7905   65.4113   39.3055 Y3         2 LUT     -0.212209
    172 C33        80.8477   65.7107   40.3377 Y4         2 LUT      0.240937
    173 C34        79.6216   65.0111   40.4387 Y5         2 LUT     -0.218862
    174 C35        78.6577   65.1061   41.5104 Y6         2 LUT     -0.023547
    175 C36        89.6277   66.9709   35.5544 Y7         2 LUT     -0.393485
    176 C37        88.9700   64.6436   36.0478 Y7         2 LUT     -0.393485
    177 C38        85.7491   67.1613   32.9571 Y9         2 LUT     -0.387526
    178 C39        85.1196   68.0306   38.1043 W1         2 LUT     -0.322618
    179 C40        81.3790   66.6141   41.4418 W2         2 LUT     -0.358472
    180 H403       82.3462   66.4334   41.8625 R7         2 LUT      0.097720
    181 H402       81.4069   67.5846   41.0357 R7         2 LUT      0.097720
    182 H401       80.7114   66.6385   42.3081 R7         2 LUT      0.097720
    183 H393       84.8745   68.8496   37.4465 R4         2 LUT      0.082505
    184 H392       84.5698   68.2122   39.0574 R4         2 LUT      0.082505
    185 H391       86.1693   68.1716   38.3067 R4         2 LUT      0.082505
    186 H383       85.6024   67.7051   31.9431 R1         2 LUT      0.104030
    187 H382       85.0125   66.3630   32.8916 R1         2 LUT      0.104030
    188 H381       85.4933   67.8976   33.7017 R1         2 LUT      0.104030
    189 H373       88.5694   65.0579   36.9721 T4         2 LUT      0.089537
    190 H372       88.3912   63.7148   35.7534 T4         2 LUT      0.089537
    191 H371       90.0299   64.4050   36.2379 T4         2 LUT      0.089537
    192 H363       89.2476   67.2243   36.5662 T4         2 LUT      0.089537
    193 H362       90.6549   66.7698   35.7197 T4         2 LUT      0.089537
    194 H361       89.5143   67.7799   34.8273 T4         2 LUT      0.089537
    195 H222       90.6419   64.9256   33.7676 U2         2 LUT      0.127376
    196 H221       88.9931   64.4419   33.2372 U2         2 LUT      0.127376
    197 H203       75.6335   62.5443   40.8665 R7         2 LUT      0.087068
    198 H202       74.0564   62.2822   41.4932 R7         2 LUT      0.087068
    199 H201       74.2636   63.6014   40.5293 R7         2 LUT      0.087068
    200 H193       71.2173   60.9365   46.2946 R4         2 LUT      0.089716
    201 H192       70.3998   61.3580   44.8052 R4         2 LUT      0.089716
    202 H191       72.1897   60.9458   44.8184 R4         2 LUT      0.089716
    203 H183       68.4526   66.0874   48.3287 R1         2 LUT      0.094572
    204 H182       68.8150   64.7353   47.2887 R1         2 LUT      0.094572
    205 H181       67.2424   64.7799   48.4279 R1         2 LUT      0.094572
    206 H173       70.7319   63.9033   51.7436 T4         2 LUT      0.093752
    207 H172       70.7918   62.1087   52.4924 T4         2 LUT      0.093752
    208 H171       71.9609   62.7977   51.2802 T4         2 LUT      0.093752
    209 H163       71.5632   60.8775   49.8818 T4         2 LUT      0.093752
    210 H162       70.4560   60.3016   51.0381 T4         2 LUT      0.093752
    211 H161       69.9964   60.3232   49.3492 T4         2 LUT      0.093752
    212 HO3        67.8141   63.5285   53.3243 Q1         2 LUT      0.300121
    213 H8         71.7456   64.2442   47.4275 U7         2 LUT      0.080784
    214 H7         69.6567   62.0634   47.7070 U6         2 LUT      0.042190
    215 H42        67.7006   65.4993   50.6376 U5         2 LUT      0.145166
    216 H41        69.0165   65.2081   51.4346 U5         2 LUT      0.145166
    217 H35        78.8923   65.7177   42.3436 T3         2 LUT      0.077919
    218 H34        79.3357   64.4298   39.5054 T2         2 LUT      0.073626
    219 H32        81.4863   64.5790   38.6070 T1         2 LUT      0.092510
    220 H31        83.1389   66.8826   39.6028 U9         2 LUT      0.070048
    221 H30        83.5494   64.9831   37.2958 U8         2 LUT      0.085442
    222 H3         66.8312   63.1887   50.7828 U3         2 LUT     -0.031596
    223 H28        85.2423   65.3637   35.8845 U7         2 LUT      0.084728
    224 H27        87.2162   67.6300   35.9159 U6         2 LUT      0.087291
    225 H26        86.9820   64.9525   34.4632 Q6         2 LUT      0.075325
    226 H24        87.8827   67.0573   31.2790 Q5         2 LUT      0.094482
    227 H23        90.2821   67.0964   32.8654 U3         2 LUT     -0.024869
    228 H22        67.9087   61.6755   50.2706 U2         2 LUT      0.127376
    229 H21        68.6043   61.3186   51.6761 U2         2 LUT      0.127376
    230 H15        77.2954   63.8209   40.5902 T3         2 LUT      0.093200
    231 H14        76.5541   65.0740   43.2821 T2         2 LUT      0.068865
    232 H12        74.5779   64.9039   44.1939 T1         2 LUT      0.095507
    233 H11        72.8224   62.8199   42.9246 U9         2 LUT      0.068930
    234 H10        72.7867   64.6650   45.3679 U8         2 LUT      0.083911
    235 H1         89.8061   65.0897   30.9573 Q1         2 LUT      0.297311
@<TRIPOS>BOND
    1     6     1 1
    2     7     2 1
    3     8     3 1
    4     9     4 1
    5    11     4 1
    6    12     6 1
    7    13     9 1
    8    16     9 1
    9    25     5 1
   10    25    16 1
   11    26    10 1
   12    26    17 1
   13    27    18 1
   14    28    14 1
   15    28    19 1
   16    29    12 1
   17    30    13 1
   18    31    24 1
   19    32     1 1
   20    32    25 1
   21    33    21 1
   22    33    26 1
   23    34    22 1
   24    34    27 1
   25    35    23 1
   26    35    28 1
   27    36    12 1
   28    36    24 1
   29    37    13 1
   30    37    15 1
   31    38    31 1
   32    39    20 1
   33    39    32 1
   34    40     2 1
   35    40    33 1
   36    41     3 1
   37    41    34 1
   38    42     4 1
   39    42    35 1
   40    43    38 1
   41    44     5 1
   42    44    17 1
   43    44    39 1
   44    45    10 1
   45    45    18 1
   46    45    40 1
   47    46    19 1
   48    46    41 1
   49    47    14 1
   50    47    16 1
   51    47    42 1
   52    48    38 1
   53    49    48 1
   54    50    49 1
   55    51    50 1
   56    52    51 1
   57    53    51 1
   58    54    53 1
   59    55    54 1
   60    56    55 1
   61    57    56 1
   62    58    56 1
   63    59    58 1
   64    60    59 1
   65    61    60 1
   66    62    61 1
   67    63    61 1
   68    64    27 1
   69    64    46 1
   70    65     5 1
   71    65    10 1
   72    65    64 1
   73    65    14 1
   74    66    23 1
   75    67    23 1
   76    68    23 1
   77    69    22 1
   78    70    22 1
   79    71    22 1
   80    72    21 1
   81    73    21 1
   82    74    21 1
   83    75    20 1
   84    76    20 1
   85    77    20 1
   86    78    15 1
   87    79    15 1
   88    80    15 1
   89    81     8 1
   90    82     8 1
   91    83     8 1
   92    84     7 1
   93    85     7 1
   94    86     6 1
   95    87     6 1
   96    88     3 1
   97    89     3 1
   98    90     1 1
   99    91     1 1
  100    92    63 1
  101    93    63 1
  102    94    63 1
  103    95    62 1
  104    96    62 1
  105    97    62 1
  106    98    60 1
  107    99    60 1
  108   100    59 1
  109   101    59 1
  110   102    58 1
  111   103    58 1
  112   104    57 1
  113   105    57 1
  114   106    57 1
  115   107    55 1
  116   108    55 1
  117   109    54 1
  118   110    54 1
  119   111    53 1
  120   112    53 1
  121   113    19 1
  122   114    18 1
  123   115    17 1
  124   116     9 1
  125   117     2 1
  126   118    52 1
  127   119    52 1
  128   120    52 1
  129   121    51 1
  130   122    50 1
  131   123    50 1
  132   124    49 1
  133   125    49 1
  134   126    48 1
  135   127    48 1
  136   128    43 1
  137   129    43 1
  138   130    43 1
  139   131    39 1
  140   132    32 1
  141   133    31 1
  142   134    61 1
  143   135    56 1
  144   136    24 1
  145   137    24 1
  146   139   138 1
  147   140   139 1
  148   141   140 1
  149   142   140 1
  150   143   142 1
  151   144   138 1
  152   144   143 1
  153   145   144 1
  154   146   145 1
  155   147   146 1
  156   148   147 1
  157   149   148 1
  158   150   149 1
  159   151   150 1
  160   152   151 1
  161   153   152 1
  162   154   138 1
  163   155   138 1
  164   156   143 1
  165   157   147 1
  166   158   151 1
  167   160   159 1
  168   161   160 1
  169   162   161 1
  170   163   161 1
  171   164   163 1
  172   165   159 1
  173   165   164 1
  174   166   165 1
  175   167   166 1
  176   168   167 1
  177   169   168 1
  178   170   169 1
  179   171   170 1
  180   172   171 1
  181   173   172 1
  182   174   153 1
  183   174   173 1
  184   175   159 1
  185   176   159 1
  186   177   164 1
  187   178   168 1
  188   179   172 1
  189   180   179 1
  190   181   179 1
  191   182   179 1
  192   183   178 1
  193   184   178 1
  194   185   178 1
  195   186   177 1
  196   187   177 1
  197   188   177 1
  198   189   176 1
  199   190   176 1
  200   191   176 1
  201   192   175 1
  202   193   175 1
  203   194   175 1
  204   195   160 1
  205   196   160 1
  206   197   158 1
  207   198   158 1
  208   199   158 1
  209   200   157 1
  210   201   157 1
  211   202   157 1
  212   203   156 1
  213   204   156 1
  214   205   156 1
  215   206   155 1
  216   207   155 1
  217   208   155 1
  218   209   154 1
  219   210   154 1
  220   211   154 1
  221   212   141 1
  222   213   146 1
  223   214   145 1
  224   215   142 1
  225   216   142 1
  226   217   174 1
  227   218   173 1
  228   219   171 1
  229   220   170 1
  230   221   169 1
  231   222   140 1
  232   223   167 1
  233   224   166 1
  234   225   165 1
  235   226   163 1
  236   227   161 1
  237   228   139 1
  238   229   139 1
  239   230   153 1
  240   231   152 1
  241   232   150 1
  242   233   149 1
  243   234   148 1
  244   235   162 1
  245   65    153 1
  246   65    174 1
@<TRIPOS>SUBSTRUCTURE
      1 CLA               1 ****               0 ****  **** 
      2 LUT             138 ****               0 ****  **** 
