@<TRIPOS>MOLECULE
Cpptraj generated mol2 file.
  235   246     2     0     0
SMALL
USER_CHARGES


@<TRIPOS>ATOM
      1 CAA        78.4629   59.3943   33.2697 a2         1 CLA     -0.055900
      2 CAB        78.3147   61.7348   42.7924 c8         1 CLA     -0.148500
      3 CAC        71.3386   58.0578   41.5106 a2         1 CLA     -0.012600
      4 CAD        74.2322   56.5547   34.1701 ck         1 CLA      0.398800
      5 NA         77.3995   59.3630   36.7283 ns         1 CLA     -0.225500
      6 CBA        79.7998   59.2457   32.4095 a2         1 CLA     -0.135000
      7 CBB        79.5758   61.7719   43.3232 c0         1 CLA     -0.395200
      8 CBC        71.5014   56.5619   41.8866 a3         1 CLA     -0.037700
      9 CBD        75.7170   57.1789   33.9524 a1         1 CLA     -0.053900
     10 NB         77.0397   60.6096   39.5032 nm         1 CLA     -0.295700
     11 OBD        73.6988   55.7351   33.4166 o2         1 CLA     -0.494600
     12 CGA        80.2194   57.8386   32.0039 c4         1 CLA      0.827000
     13 CGD        76.5922   55.9604   33.7366 c4         1 CLA      0.655300
     14 ND         74.5256   58.4393   37.1909 nm         1 CLA     -0.291600
     15 CED        76.9965   53.6514   34.2752 a3         1 CLA      0.005400
     16 CHA        76.0922   58.0130   35.2030 cs         1 CLA     -0.123800
     17 CHB        79.1420   60.4456   38.0463 aa         1 CLA     -0.291900
     18 CHC        75.7412   60.6209   41.5426 aa         1 CLA     -0.090400
     19 CHD        72.7522   57.9646   38.7415 aa         1 CLA     -0.052000
     20 CMA        80.8662   58.6641   36.1067 a3         1 CLA     -0.230700
     21 CMB        80.3467   62.0366   40.3518 a3         1 CLA     -0.180800
     22 CMC        73.4406   59.8264   43.4667 a3         1 CLA     -0.134000
     23 CMD        71.4213   56.5138   36.1932 a3         1 CLA     -0.141100
     24 C1         80.9677   55.7418   33.0091 a2         1 CLA      0.023000
     25 C1A        77.2930   58.6889   35.5315 ac         1 CLA     -0.015100
     26 C1B        78.4057   60.8441   39.2333 cr         1 CLA      0.054700
     27 C1C        74.5692   59.9404   41.1347 cn         1 CLA     -0.005600
     28 C1D        73.3824   57.7765   37.4855 ap         1 CLA     -0.047300
     29 O1A        80.0552   57.3126   30.9010 o2         1 CLA     -0.610800
     30 O1D        77.3064   55.8868   32.7713 o2         1 CLA     -0.558200
     31 C2         81.5702   55.3342   34.3091 c8         1 CLA     -0.325100
     32 C2A        78.5504   58.7765   34.6945 a1         1 CLA      0.098600
     33 C2B        78.9775   61.5523   40.3352 cb         1 CLA      0.088500
     34 C2C        73.4923   59.5340   42.0247 cb         1 CLA      0.053700
     35 C2D        72.8271   57.1639   36.3132 cb         1 CLA      0.058900
     36 O2A        80.7764   57.2182   33.0941 o1         1 CLA     -0.437200
     37 O2D        76.3782   54.9216   34.6596 o1         1 CLA     -0.357600
     38 C3         82.3141   54.2376   34.5569 c5         1 CLA      0.031200
     39 C3A        79.5620   59.4352   35.7136 a1         1 CLA      0.166800
     40 C3B        78.0432   61.4532   41.3789 cb         1 CLA      0.035000
     41 C3C        72.6574   58.7480   41.1868 cb         1 CLA     -0.089900
     42 C3D        73.8724   57.1783   35.3858 cb         1 CLA     -0.035900
     43 C4         81.6643   52.9405   35.0201 a3         1 CLA     -0.053300
     44 C4A        78.6518   59.8053   36.9017 ac         1 CLA      0.001800
     45 C4B        76.8587   60.8682   40.8637 cn         1 CLA     -0.020900
     46 C4C        73.2800   58.7093   39.8660 cr         1 CLA     -0.044400
     47 C4D        74.9001   57.9568   35.9536 c6         1 CLA     -0.046000
     48 C5         83.7203   54.2795   34.0856 a2         1 CLA     -0.070400
     49 C6         84.4744   55.5766   34.3305 a2         1 CLA      0.043900
     50 C7         84.6384   55.7580   35.8734 a2         1 CLA     -0.150000
     51 C8         84.8794   57.1522   36.4432 a1         1 CLA      0.064200
     52 C9         86.2321   57.6207   35.8178 a3         1 CLA     -0.259300
     53 C10        84.8630   57.2292   38.0566 a2         1 CLA     -0.071900
     54 C11        83.4292   57.0629   38.6503 a2         1 CLA      0.014500
     55 C12        83.5759   57.0790   40.1464 a2         1 CLA     -0.112100
     56 C13        82.3209   56.7692   40.9280 a1         1 CLA      0.089200
     57 C14        81.0612   57.6402   40.6909 a3         1 CLA     -0.239100
     58 C15        82.5309   56.6199   42.4693 a2         1 CLA     -0.102200
     59 C16        82.7443   57.8438   43.3157 a2         1 CLA      0.023900
     60 C17        83.2250   57.4774   44.7336 a2         1 CLA     -0.105700
     61 C18        84.0335   58.6261   45.4688 a1         1 CLA      0.206800
     62 C19        82.9678   59.6494   46.0322 a3         1 CLA     -0.280100
     63 C20        84.9127   58.0784   46.6372 a3         1 CLA     -0.280100
     64 NC         74.4285   59.3866   39.8878 nx         1 CLA     -0.309200
     65 MG         75.8620   59.5542   38.2729 mg         1 CLA      0.895000
     66 HMD3       71.4276   55.7204   35.4640 dc         1 CLA      0.064300
     67 HMD2       71.1244   56.0943   37.1393 dc         1 CLA      0.064300
     68 HMD1       70.7389   57.2472   35.7794 dc         1 CLA      0.064300
     69 HMC3       74.3367   59.4948   43.9662 dc         1 CLA      0.052100
     70 HMC2       73.2893   60.8456   43.5682 dc         1 CLA      0.052100
     71 HMC1       72.5224   59.3386   43.7722 dc         1 CLA      0.052100
     72 HMB3       80.8715   61.2262   40.8879 dc         1 CLA      0.063600
     73 HMB2       80.6998   62.1949   39.3536 dc         1 CLA      0.063600
     74 HMB1       80.3393   63.0024   40.8554 dc         1 CLA      0.063600
     75 HMA3       80.6099   57.7281   36.6603 dc         1 CLA      0.058300
     76 HMA2       81.4847   58.4975   35.2738 dc         1 CLA      0.058300
     77 HMA1       81.3090   59.3385   36.8077 dc         1 CLA      0.058300
     78 HED3       78.0632   53.8762   34.3252 dc         1 CLA      0.079300
     79 HED2       76.7807   52.9785   35.0347 dc         1 CLA      0.079300
     80 HED1       76.6987   53.2100   33.3334 dc         1 CLA      0.079300
     81 HBC3       71.8000   56.1023   41.0296 dc         1 CLA      0.016300
     82 HBC2       72.2217   56.3836   42.7046 dc         1 CLA      0.016300
     83 HBC1       70.5453   56.1106   42.1527 dc         1 CLA      0.016300
     84 HBB2       79.7475   62.0703   44.3267 da         1 CLA      0.183000
     85 HBB1       80.4752   61.6195   42.7185 da         1 CLA      0.183000
     86 HBA2       79.8145   59.8934   31.4767 dc         1 CLA      0.029400
     87 HBA1       80.6175   59.7615   32.8983 dc         1 CLA      0.029400
     88 HAC2       70.8148   58.5827   42.3339 dc         1 CLA      0.029300
     89 HAC1       70.6236   58.1488   40.6791 dc         1 CLA      0.029300
     90 HAA2       77.7376   58.7856   32.7054 dc         1 CLA      0.028700
     91 HAA1       77.9628   60.4003   33.3016 dc         1 CLA      0.028700
     92 H203       85.1809   58.9036   47.2968 dc         1 CLA      0.065600
     93 H202       84.3998   57.2336   47.1805 dc         1 CLA      0.065600
     94 H201       85.7438   57.6590   46.1648 dc         1 CLA      0.065600
     95 H193       82.3123   59.2251   46.8243 dc         1 CLA      0.065600
     96 H192       83.5235   60.4043   46.4884 dc         1 CLA      0.065600
     97 H191       82.3144   60.1358   45.2675 dc         1 CLA      0.065600
     98 H172       82.4109   57.2667   45.3748 dc         1 CLA      0.027600
     99 H171       83.9200   56.6249   44.5728 dc         1 CLA      0.027600
    100 H162       83.5872   58.4411   42.8742 dc         1 CLA      0.002900
    101 H161       81.8712   58.3933   43.4289 dc         1 CLA      0.002900
    102 H152       81.9070   55.8465   42.9373 dc         1 CLA      0.029100
    103 H151       83.4836   56.0347   42.4822 dc         1 CLA      0.029100
    104 H143       80.7903   57.8495   39.6360 dc         1 CLA      0.063600
    105 H142       80.1928   57.1071   41.0648 dc         1 CLA      0.063600
    106 H141       81.1903   58.5517   41.1833 dc         1 CLA      0.063600
    107 H122       84.3398   56.4156   40.4128 dc         1 CLA      0.032500
    108 H121       83.9364   58.1092   40.3180 dc         1 CLA      0.032500
    109 H112       82.6985   57.7800   38.2038 dc         1 CLA      0.006600
    110 H111       83.0207   56.1896   38.3202 dc         1 CLA      0.006600
    111 H102       85.4517   56.3744   38.4738 dc         1 CLA      0.024100
    112 H101       85.3546   58.1002   38.4663 dc         1 CLA      0.024100
    113 HHD        71.7839   57.4846   38.8473 da         1 CLA      0.174300
    114 HHC        75.8509   60.9778   42.5809 da         1 CLA      0.136800
    115 HHB        80.1547   60.8067   38.0034 da         1 CLA      0.138300
    116 HBD        75.7438   57.8490   33.1170 dc         1 CLA      0.107700
    117 HAB        77.4957   61.8909   43.4771 da         1 CLA      0.155200
    118 H93        87.0888   56.8870   35.9689 dc         1 CLA      0.069500
    119 H92        86.1814   57.7389   34.7665 dc         1 CLA      0.069500
    120 H91        86.6013   58.5456   36.1957 dc         1 CLA      0.069500
    121 H8         84.0522   57.7586   36.0587 dc         1 CLA      0.029300
    122 H72        83.6800   55.3350   36.3491 dc         1 CLA      0.044400
    123 H71        85.4552   55.0904   36.1308 dc         1 CLA      0.044400
    124 H62        85.5601   55.5027   34.0244 dc         1 CLA      0.015600
    125 H61        84.0803   56.5389   33.8700 dc         1 CLA      0.015600
    126 H52        84.2559   53.4854   34.5504 dc         1 CLA      0.033200
    127 H51        83.7479   54.0732   33.0045 dc         1 CLA      0.033200
    128 H43        82.1075   52.0486   34.5897 dc         1 CLA      0.037000
    129 H42        81.8137   52.8978   36.0481 dc         1 CLA      0.037000
    130 H41        80.6269   52.8335   34.8235 dc         1 CLA      0.037000
    131 H3A        79.9538   60.3202   35.1312 dc         1 CLA      0.041100
    132 H2A        78.8259   57.7106   34.6526 dc         1 CLA      0.083100
    133 H2         81.4831   56.0562   35.1120 da         1 CLA      0.180900
    134 H18        84.6757   59.0903   44.7322 dc         1 CLA     -0.003900
    135 H13        81.9514   55.8057   40.5917 dc         1 CLA      0.019700
    136 H12        80.0012   55.2391   32.7120 dc         1 CLA      0.120400
    137 H11        81.7091   55.6078   32.2330 dc         1 CLA      0.120400
    138 C1         67.7145   61.4682   49.6767 Z1         2 LUT      0.509236
    139 C2         66.3742   61.1686   50.3180 Z2         2 LUT     -0.434695
    140 C3         65.6116   62.4546   50.7526 Z3         2 LUT      0.437453
    141 O3         66.0041   62.8634   52.0164 S1         2 LUT     -0.547129
    142 C4         65.8433   63.5877   49.7504 Z4         2 LUT     -0.468603
    143 C5         66.7958   63.3896   48.5893 Z5         2 LUT      0.279246
    144 C6         67.7524   62.3876   48.5008 Z6         2 LUT     -0.305473
    145 C7         68.2370   61.8759   47.1452 Z7         2 LUT      0.069402
    146 C8         69.0605   62.5147   46.2728 Z8         2 LUT     -0.191631
    147 C9         69.6332   62.1759   44.9883 Z9         2 LUT      0.196698
    148 C10        70.7672   62.8211   44.5494 Y1         2 LUT     -0.208611
    149 C11        71.4251   62.7077   43.1984 Y2         2 LUT      0.030784
    150 C12        72.5797   63.4753   42.9363 Y3         2 LUT     -0.220316
    151 C13        73.4537   63.2889   41.8090 Y4         2 LUT      0.215937
    152 C14        74.6805   63.9916   41.7529 Y5         2 LUT     -0.185793
    153 C15        75.7046   64.0895   40.7701 Y6         2 LUT     -0.057835
    154 C16        68.2586   60.0795   49.3862 Y7         2 LUT     -0.405615
    155 C17        68.6251   62.1904   50.7203 Y7         2 LUT     -0.405615
    156 C18        66.2197   64.1381   47.4201 Y9         2 LUT     -0.369639
    157 C19        69.0643   61.0861   44.0358 W1         2 LUT     -0.333362
    158 C20        72.9886   62.7543   40.5334 W2         2 LUT     -0.323439
    159 C21        87.3033   65.8035   34.7841 Z1         2 LUT      0.406104
    160 C22        87.9073   65.3466   33.4034 Z2         2 LUT     -0.404965
    161 C23        87.8783   66.5534   32.3982 Z3         2 LUT      0.391255
    162 O23        88.7866   66.1936   31.3916 S1         2 LUT     -0.528210
    163 C24        86.5021   67.1459   32.1487 W6         2 LUT     -0.258361
    164 C25        85.6676   67.2721   33.1754 Z5         2 LUT      0.133546
    165 C26        85.8673   66.4260   34.5028 W8         2 LUT     -0.147008
    166 C27        85.1718   66.8892   35.7700 Z7         2 LUT      0.023843
    167 C28        83.9644   66.4314   36.1428 Z8         2 LUT     -0.216987
    168 C29        83.2899   66.6841   37.4435 Z9         2 LUT      0.206524
    169 C30        81.9673   66.2856   37.5884 Y1         2 LUT     -0.215556
    170 C31        81.0899   66.2986   38.7197 Y2         2 LUT      0.025142
    171 C32        79.8299   65.7834   38.8128 Y3         2 LUT     -0.212209
    172 C33        78.9452   65.9000   40.0033 Y4         2 LUT      0.240937
    173 C34        77.7886   65.1498   39.9393 Y5         2 LUT     -0.218862
    174 C35        76.7115   65.0113   40.8518 Y6         2 LUT     -0.023547
    175 C36        88.3958   66.5950   35.6039 Y7         2 LUT     -0.393485
    176 C37        87.2045   64.5293   35.5859 Y7         2 LUT     -0.393485
    177 C38        84.3743   67.9997   33.0921 Y9         2 LUT     -0.387526
    178 C39        84.1021   67.2199   38.5795 W1         2 LUT     -0.322618
    179 C40        79.4604   66.9015   41.0835 W2         2 LUT     -0.358472
    180 H403       78.8694   67.0778   41.9348 R7         2 LUT      0.097720
    181 H402       80.4277   66.5699   41.4201 R7         2 LUT      0.097720
    182 H401       79.7133   67.8582   40.6601 R7         2 LUT      0.097720
    183 H393       83.6721   66.8881   39.5129 R4         2 LUT      0.082505
    184 H392       85.2066   66.8915   38.6096 R4         2 LUT      0.082505
    185 H391       84.0249   68.2960   38.6028 R4         2 LUT      0.082505
    186 H383       84.4666   68.6803   32.2942 R1         2 LUT      0.104030
    187 H382       83.4844   67.3510   32.9057 R1         2 LUT      0.104030
    188 H381       84.1740   68.6787   33.9693 R1         2 LUT      0.104030
    189 H373       86.7801   64.6666   36.5646 T4         2 LUT      0.089537
    190 H372       86.6260   63.7706   35.0352 T4         2 LUT      0.089537
    191 H371       88.2593   64.1447   35.7366 T4         2 LUT      0.089537
    192 H363       89.2689   65.9974   35.6240 T4         2 LUT      0.089537
    193 H362       88.5382   67.6005   35.2153 T4         2 LUT      0.089537
    194 H361       88.0631   66.7338   36.6093 T4         2 LUT      0.089537
    195 H222       89.0100   65.0316   33.4491 U2         2 LUT      0.127376
    196 H221       87.3689   64.6062   32.8473 U2         2 LUT      0.127376
    197 H203       72.1206   63.3161   40.1402 R7         2 LUT      0.087068
    198 H202       73.6950   62.6644   39.7386 R7         2 LUT      0.087068
    199 H201       72.6415   61.7170   40.7052 R7         2 LUT      0.087068
    200 H193       69.4730   60.0750   44.3993 R4         2 LUT      0.089716
    201 H192       67.9747   61.1416   43.9796 R4         2 LUT      0.089716
    202 H191       69.3882   61.1404   42.9784 R4         2 LUT      0.089716
    203 H183       65.2573   63.6927   47.2189 R1         2 LUT      0.094572
    204 H182       66.0696   65.1890   47.7763 R1         2 LUT      0.094572
    205 H181       66.7420   64.0194   46.5047 R1         2 LUT      0.094572
    206 H173       68.3782   63.1703   50.9788 T4         2 LUT      0.093752
    207 H172       68.6845   61.4923   51.5372 T4         2 LUT      0.093752
    208 H171       69.6557   62.3402   50.2833 T4         2 LUT      0.093752
    209 H163       69.3147   60.2330   48.9725 T4         2 LUT      0.093752
    210 H162       68.3812   59.4275   50.2429 T4         2 LUT      0.093752
    211 H161       67.7413   59.4989   48.6371 T4         2 LUT      0.093752
    212 HO3        65.6358   62.3597   52.7815 Q1         2 LUT      0.300121
    213 H8         69.3747   63.4805   46.6268 U7         2 LUT      0.080784
    214 H7         67.9631   60.8443   46.8761 U6         2 LUT      0.042190
    215 H42        64.8590   63.8815   49.4033 U5         2 LUT      0.145166
    216 H41        66.2218   64.4557   50.3718 U5         2 LUT      0.145166
    217 H35        76.6920   65.6152   41.7860 T3         2 LUT      0.077919
    218 H34        77.6074   64.5847   38.9519 T2         2 LUT      0.073626
    219 H32        79.4541   65.1885   37.9824 T1         2 LUT      0.092510
    220 H31        81.3848   66.9126   39.5084 U9         2 LUT      0.070048
    221 H30        81.6543   65.8020   36.6735 U8         2 LUT      0.085442
    222 H3         64.4803   62.3290   50.7604 U3         2 LUT     -0.031596
    223 H28        83.5109   65.8257   35.3502 U7         2 LUT      0.084728
    224 H27        85.7042   67.6169   36.4162 U6         2 LUT      0.087291
    225 H26        85.2575   65.5608   34.2782 Q6         2 LUT      0.075325
    226 H24        86.3610   67.8961   31.3408 Q5         2 LUT      0.094482
    227 H23        88.3089   67.4004   32.8315 U3         2 LUT     -0.024869
    228 H22        65.7245   60.7269   49.5672 U2         2 LUT      0.127376
    229 H21        66.4241   60.4034   51.1706 U2         2 LUT      0.127376
    230 H15        75.7582   63.4763   39.8474 T3         2 LUT      0.093200
    231 H14        74.8514   64.7312   42.6037 T2         2 LUT      0.068865
    232 H12        73.0534   64.1252   43.7085 T1         2 LUT      0.095507
    233 H11        71.1758   61.9576   42.5063 U9         2 LUT      0.068930
    234 H10        71.2076   63.5321   45.3042 U8         2 LUT      0.083911
    235 H1         88.3269   65.7747   30.5945 Q1         2 LUT      0.297311
@<TRIPOS>BOND
    1     6     1 1
    2     7     2 1
    3     8     3 1
    4     9     4 1
    5    11     4 1
    6    12     6 1
    7    13     9 1
    8    16     9 1
    9    25     5 1
   10    25    16 1
   11    26    10 1
   12    26    17 1
   13    27    18 1
   14    28    14 1
   15    28    19 1
   16    29    12 1
   17    30    13 1
   18    31    24 1
   19    32     1 1
   20    32    25 1
   21    33    21 1
   22    33    26 1
   23    34    22 1
   24    34    27 1
   25    35    23 1
   26    35    28 1
   27    36    12 1
   28    36    24 1
   29    37    13 1
   30    37    15 1
   31    38    31 1
   32    39    20 1
   33    39    32 1
   34    40     2 1
   35    40    33 1
   36    41     3 1
   37    41    34 1
   38    42     4 1
   39    42    35 1
   40    43    38 1
   41    44     5 1
   42    44    17 1
   43    44    39 1
   44    45    10 1
   45    45    18 1
   46    45    40 1
   47    46    19 1
   48    46    41 1
   49    47    14 1
   50    47    16 1
   51    47    42 1
   52    48    38 1
   53    49    48 1
   54    50    49 1
   55    51    50 1
   56    52    51 1
   57    53    51 1
   58    54    53 1
   59    55    54 1
   60    56    55 1
   61    57    56 1
   62    58    56 1
   63    59    58 1
   64    60    59 1
   65    61    60 1
   66    62    61 1
   67    63    61 1
   68    64    27 1
   69    64    46 1
   70    65     5 1
   71    65    10 1
   72    65    64 1
   73    65    14 1
   74    66    23 1
   75    67    23 1
   76    68    23 1
   77    69    22 1
   78    70    22 1
   79    71    22 1
   80    72    21 1
   81    73    21 1
   82    74    21 1
   83    75    20 1
   84    76    20 1
   85    77    20 1
   86    78    15 1
   87    79    15 1
   88    80    15 1
   89    81     8 1
   90    82     8 1
   91    83     8 1
   92    84     7 1
   93    85     7 1
   94    86     6 1
   95    87     6 1
   96    88     3 1
   97    89     3 1
   98    90     1 1
   99    91     1 1
  100    92    63 1
  101    93    63 1
  102    94    63 1
  103    95    62 1
  104    96    62 1
  105    97    62 1
  106    98    60 1
  107    99    60 1
  108   100    59 1
  109   101    59 1
  110   102    58 1
  111   103    58 1
  112   104    57 1
  113   105    57 1
  114   106    57 1
  115   107    55 1
  116   108    55 1
  117   109    54 1
  118   110    54 1
  119   111    53 1
  120   112    53 1
  121   113    19 1
  122   114    18 1
  123   115    17 1
  124   116     9 1
  125   117     2 1
  126   118    52 1
  127   119    52 1
  128   120    52 1
  129   121    51 1
  130   122    50 1
  131   123    50 1
  132   124    49 1
  133   125    49 1
  134   126    48 1
  135   127    48 1
  136   128    43 1
  137   129    43 1
  138   130    43 1
  139   131    39 1
  140   132    32 1
  141   133    31 1
  142   134    61 1
  143   135    56 1
  144   136    24 1
  145   137    24 1
  146   139   138 1
  147   140   139 1
  148   141   140 1
  149   142   140 1
  150   143   142 1
  151   144   138 1
  152   144   143 1
  153   145   144 1
  154   146   145 1
  155   147   146 1
  156   148   147 1
  157   149   148 1
  158   150   149 1
  159   151   150 1
  160   152   151 1
  161   153   152 1
  162   154   138 1
  163   155   138 1
  164   156   143 1
  165   157   147 1
  166   158   151 1
  167   160   159 1
  168   161   160 1
  169   162   161 1
  170   163   161 1
  171   164   163 1
  172   165   159 1
  173   165   164 1
  174   166   165 1
  175   167   166 1
  176   168   167 1
  177   169   168 1
  178   170   169 1
  179   171   170 1
  180   172   171 1
  181   173   172 1
  182   174   153 1
  183   174   173 1
  184   175   159 1
  185   176   159 1
  186   177   164 1
  187   178   168 1
  188   179   172 1
  189   180   179 1
  190   181   179 1
  191   182   179 1
  192   183   178 1
  193   184   178 1
  194   185   178 1
  195   186   177 1
  196   187   177 1
  197   188   177 1
  198   189   176 1
  199   190   176 1
  200   191   176 1
  201   192   175 1
  202   193   175 1
  203   194   175 1
  204   195   160 1
  205   196   160 1
  206   197   158 1
  207   198   158 1
  208   199   158 1
  209   200   157 1
  210   201   157 1
  211   202   157 1
  212   203   156 1
  213   204   156 1
  214   205   156 1
  215   206   155 1
  216   207   155 1
  217   208   155 1
  218   209   154 1
  219   210   154 1
  220   211   154 1
  221   212   141 1
  222   213   146 1
  223   214   145 1
  224   215   142 1
  225   216   142 1
  226   217   174 1
  227   218   173 1
  228   219   171 1
  229   220   170 1
  230   221   169 1
  231   222   140 1
  232   223   167 1
  233   224   166 1
  234   225   165 1
  235   226   163 1
  236   227   161 1
  237   228   139 1
  238   229   139 1
  239   230   153 1
  240   231   152 1
  241   232   150 1
  242   233   149 1
  243   234   148 1
  244   235   162 1
  245   65    153 1
  246   65    174 1
@<TRIPOS>SUBSTRUCTURE
      1 CLA               1 ****               0 ****  **** 
      2 LUT             138 ****               0 ****  **** 
