@<TRIPOS>MOLECULE
Cpptraj generated mol2 file.
  235   246     2     0     0
SMALL
USER_CHARGES


@<TRIPOS>ATOM
      1 CAA        79.7608   58.2489   34.6804 a2         1 CLA     -0.055900
      2 CAB        79.5398   62.3815   43.5598 c8         1 CLA     -0.148500
      3 CAC        72.6340   58.3736   43.0598 a2         1 CLA     -0.012600
      4 CAD        75.3761   55.7102   35.8158 ck         1 CLA      0.398800
      5 NA         78.6168   58.7317   38.0524 ns         1 CLA     -0.225500
      6 CBA        80.9629   57.8726   33.7771 a2         1 CLA     -0.135000
      7 CBB        80.3897   63.3714   43.9534 c0         1 CLA     -0.395200
      8 CBC        72.8868   56.8993   43.1826 a3         1 CLA     -0.037700
      9 CBD        76.9746   56.2228   35.6083 a1         1 CLA     -0.053900
     10 NB         78.4112   60.5626   40.4801 nm         1 CLA     -0.295700
     11 OBD        74.7848   54.8526   35.1672 o2         1 CLA     -0.494600
     12 CGA        81.2551   56.4040   33.6632 c4         1 CLA      0.827000
     13 CGD        77.8217   54.9613   35.4071 c4         1 CLA      0.655300
     14 ND         75.8129   57.9353   38.6140 nm         1 CLA     -0.291600
     15 CED        78.6873   53.1085   36.6203 a3         1 CLA      0.005400
     16 CHA        77.2453   57.1976   36.7205 cs         1 CLA     -0.123800
     17 CHB        80.4004   60.0414   39.0906 aa         1 CLA     -0.291900
     18 CHC        77.0329   60.9536   42.4477 aa         1 CLA     -0.090400
     19 CHD        73.9294   57.9160   40.2593 aa         1 CLA     -0.052000
     20 CMA        82.1630   57.8865   37.6206 a3         1 CLA     -0.230700
     21 CMB        81.8054   61.8831   41.1240 a3         1 CLA     -0.180800
     22 CMC        74.6416   60.5213   44.4822 a3         1 CLA     -0.134000
     23 CMD        72.7338   55.8995   37.9855 a3         1 CLA     -0.141100
     24 C1         82.2483   54.5474   34.7828 a2         1 CLA      0.023000
     25 C1A        78.4663   57.8932   36.9778 ac         1 CLA     -0.015100
     26 C1B        79.7393   60.7505   40.1063 cr         1 CLA      0.054700
     27 C1C        75.8059   60.2774   42.1775 cn         1 CLA     -0.005600
     28 C1D        74.5172   57.4906   39.0585 ap         1 CLA     -0.047300
     29 O1A        81.2145   55.7401   32.6668 o2         1 CLA     -0.610800
     30 O1D        78.3715   54.6535   34.3595 o2         1 CLA     -0.558200
     31 C2         82.9982   54.4187   36.0927 c8         1 CLA     -0.325100
     32 C2A        79.8266   57.7238   36.2090 a1         1 CLA      0.098600
     33 C2B        80.3714   61.4314   41.1706 cb         1 CLA      0.088500
     34 C2C        74.7063   60.0888   43.0684 cb         1 CLA      0.053700
     35 C2D        74.0187   56.6291   37.9858 cb         1 CLA      0.058900
     36 O2A        81.8569   55.9500   34.7944 o1         1 CLA     -0.437200
     37 O2D        77.8879   54.3200   36.6195 o1         1 CLA     -0.357600
     38 C3         84.3549   54.3636   36.2900 c5         1 CLA      0.031200
     39 C3A        80.8700   58.5046   37.0830 a1         1 CLA      0.166800
     40 C3B        79.4304   61.6604   42.2318 cb         1 CLA      0.035000
     41 C3C        73.8443   59.0909   42.4940 cb         1 CLA     -0.089900
     42 C3D        75.0346   56.4762   37.0366 cb         1 CLA     -0.035900
     43 C4         85.0430   53.0722   36.2200 a3         1 CLA     -0.053300
     44 C4A        79.9257   59.1620   38.1228 ac         1 CLA      0.001800
     45 C4B        78.2330   60.9902   41.7191 cn         1 CLA     -0.020900
     46 C4C        74.4106   58.8160   41.2159 cr         1 CLA     -0.044400
     47 C4D        76.1061   57.2453   37.4888 c6         1 CLA     -0.046000
     48 C5         85.1031   55.6439   36.7069 a2         1 CLA     -0.070400
     49 C6         85.1344   55.9650   38.2498 a2         1 CLA      0.043900
     50 C7         86.1465   57.0905   38.5392 a2         1 CLA     -0.150000
     51 C8         87.5159   56.5140   39.0657 a1         1 CLA      0.064200
     52 C9         88.1447   55.6301   38.0142 a3         1 CLA     -0.259300
     53 C10        87.5027   56.0633   40.5194 a2         1 CLA     -0.071900
     54 C11        86.8040   57.0149   41.5358 a2         1 CLA      0.014500
     55 C12        87.2923   56.5261   42.9702 a2         1 CLA     -0.112100
     56 C13        87.2373   57.4883   44.1940 a1         1 CLA      0.089200
     57 C14        88.3489   57.5207   45.1778 a3         1 CLA     -0.239100
     58 C15        85.8321   57.4717   44.8528 a2         1 CLA     -0.102200
     59 C16        85.2414   58.7639   45.5408 a2         1 CLA      0.023900
     60 C17        83.8234   58.5796   46.0371 a2         1 CLA     -0.105700
     61 C18        83.3861   59.4610   47.2145 a1         1 CLA      0.206800
     62 C19        83.0403   60.9250   46.7176 a3         1 CLA     -0.280100
     63 C20        82.1757   58.8150   47.8989 a3         1 CLA     -0.280100
     64 NC         75.6390   59.5195   41.0695 nx         1 CLA     -0.309200
     65 MG         77.1152   59.2780   39.4665 mg         1 CLA      0.895000
     66 HMD3       72.6867   55.0449   38.5769 dc         1 CLA      0.064300
     67 HMD2       71.9232   56.6195   38.2044 dc         1 CLA      0.064300
     68 HMD1       72.4937   55.6349   36.9117 dc         1 CLA      0.064300
     69 HMC3       74.8927   61.5969   44.6515 dc         1 CLA      0.052100
     70 HMC2       73.6615   60.3645   44.8055 dc         1 CLA      0.052100
     71 HMC1       75.3333   59.7952   44.9825 dc         1 CLA      0.052100
     72 HMB3       82.2891   61.8989   42.1297 dc         1 CLA      0.063600
     73 HMB2       82.4565   61.3186   40.5295 dc         1 CLA      0.063600
     74 HMB1       81.8030   62.8427   40.6989 dc         1 CLA      0.063600
     75 HMA3       82.7952   58.5834   38.1804 dc         1 CLA      0.058300
     76 HMA2       81.7608   57.1652   38.3484 dc         1 CLA      0.058300
     77 HMA1       82.8777   57.4315   36.8850 dc         1 CLA      0.058300
     78 HED3       78.8066   52.7983   37.6640 dc         1 CLA      0.079300
     79 HED2       78.2243   52.3278   36.0368 dc         1 CLA      0.079300
     80 HED1       79.6776   53.2833   36.2525 dc         1 CLA      0.079300
     81 HBC3       72.0920   56.4546   43.6957 dc         1 CLA      0.016300
     82 HBC2       72.9780   56.4055   42.2085 dc         1 CLA      0.016300
     83 HBC1       73.8983   56.8211   43.6282 dc         1 CLA      0.016300
     84 HBB2       80.4421   63.7438   45.0372 da         1 CLA      0.183000
     85 HBB1       81.0318   63.7228   43.1147 da         1 CLA      0.183000
     86 HBA2       80.7849   58.3835   32.8154 dc         1 CLA      0.029400
     87 HBA1       81.8939   58.2991   34.1362 dc         1 CLA      0.029400
     88 HAC2       72.4985   58.8114   44.0369 dc         1 CLA      0.029300
     89 HAC1       71.7540   58.5580   42.4235 dc         1 CLA      0.029300
     90 HAA2       78.8587   57.7558   34.2138 dc         1 CLA      0.028700
     91 HAA1       79.6338   59.3443   34.6249 dc         1 CLA      0.028700
     92 H203       82.5175   57.8579   48.2578 dc         1 CLA      0.065600
     93 H202       81.7308   59.4209   48.6784 dc         1 CLA      0.065600
     94 H201       81.4205   58.7118   47.1325 dc         1 CLA      0.065600
     95 H193       82.9096   60.9130   45.6160 dc         1 CLA      0.065600
     96 H192       82.1672   61.3943   47.1364 dc         1 CLA      0.065600
     97 H191       83.9569   61.4485   46.9642 dc         1 CLA      0.065600
     98 H172       83.1242   58.5490   45.1898 dc         1 CLA      0.027600
     99 H171       83.8535   57.5048   46.2952 dc         1 CLA      0.027600
    100 H162       85.8619   58.8348   46.4172 dc         1 CLA      0.002900
    101 H161       85.2604   59.6771   44.9332 dc         1 CLA      0.002900
    102 H152       85.1953   57.2758   43.9951 dc         1 CLA      0.029100
    103 H151       85.7980   56.6007   45.4857 dc         1 CLA      0.029100
    104 H143       88.5777   56.5282   45.5933 dc         1 CLA      0.063600
    105 H142       89.1883   58.0048   44.6946 dc         1 CLA      0.063600
    106 H141       87.9768   58.1488   46.0144 dc         1 CLA      0.063600
    107 H122       86.8119   55.4958   43.1550 dc         1 CLA      0.032500
    108 H121       88.4154   56.4073   42.9196 dc         1 CLA      0.032500
    109 H112       87.1301   58.0045   41.3348 dc         1 CLA      0.006600
    110 H111       85.7377   56.9367   41.5654 dc         1 CLA      0.006600
    111 H102       86.8583   55.2101   40.5954 dc         1 CLA      0.024100
    112 H101       88.4669   55.8190   40.9211 dc         1 CLA      0.024100
    113 HHD        72.9451   57.4614   40.4500 da         1 CLA      0.174300
    114 HHC        77.0270   61.5299   43.3559 da         1 CLA      0.136800
    115 HHB        81.4362   60.2554   38.9621 da         1 CLA      0.138300
    116 HBD        77.0307   56.8047   34.6555 dc         1 CLA      0.107700
    117 HAB        78.9570   61.9725   44.4472 da         1 CLA      0.155200
    118 H93        87.4373   54.7806   37.8996 dc         1 CLA      0.069500
    119 H92        88.2197   56.2241   37.0531 dc         1 CLA      0.069500
    120 H91        89.0853   55.2071   38.4324 dc         1 CLA      0.069500
    121 H8         88.2664   57.2945   38.9558 dc         1 CLA      0.029300
    122 H72        86.2159   57.8287   37.7107 dc         1 CLA      0.044400
    123 H71        85.7955   57.5750   39.3578 dc         1 CLA      0.044400
    124 H62        84.1643   56.3433   38.6467 dc         1 CLA      0.015600
    125 H61        85.4193   55.1173   38.7724 dc         1 CLA      0.015600
    126 H52        86.1414   55.5973   36.3585 dc         1 CLA      0.033200
    127 H51        84.8365   56.4710   36.0725 dc         1 CLA      0.033200
    128 H43        84.3527   52.2185   35.9870 dc         1 CLA      0.037000
    129 H42        85.8194   52.9378   35.4911 dc         1 CLA      0.037000
    130 H41        85.5400   52.8778   37.1510 dc         1 CLA      0.037000
    131 H3A        81.0799   59.3212   36.4201 dc         1 CLA      0.041100
    132 H2A        80.0421   56.6518   36.2809 dc         1 CLA      0.083100
    133 H2         82.4908   54.1223   37.0440 da         1 CLA      0.180900
    134 H18        84.1536   59.4796   47.9786 dc         1 CLA     -0.003900
    135 H13        87.2185   58.4628   43.7153 dc         1 CLA      0.019700
    136 H12        81.2981   53.9739   34.7480 dc         1 CLA      0.120400
    137 H11        82.8604   54.2254   33.9628 dc         1 CLA      0.120400
    138 C1         70.1017   62.0929   49.4040 Z1         2 LUT      0.509236
    139 C2         68.9094   61.8414   50.3130 Z2         2 LUT     -0.434695
    140 C3         68.2365   63.0386   50.9144 Z3         2 LUT      0.437453
    141 O3         68.9620   63.3458   52.1125 S1         2 LUT     -0.547129
    142 C4         68.3253   64.3272   49.9701 Z4         2 LUT     -0.468603
    143 C5         68.6106   63.9334   48.5384 Z5         2 LUT      0.279246
    144 C6         69.5416   62.9803   48.3197 Z6         2 LUT     -0.305473
    145 C7         69.7661   62.5079   46.9341 Z7         2 LUT      0.069402
    146 C8         70.8954   62.7636   46.2752 Z8         2 LUT     -0.191631
    147 C9         71.2907   62.3403   44.8616 Z9         2 LUT      0.196698
    148 C10        72.3613   63.0834   44.3261 Y1         2 LUT     -0.208611
    149 C11        73.1228   63.1169   43.1566 Y2         2 LUT      0.030784
    150 C12        74.3385   63.8157   43.1204 Y3         2 LUT     -0.220316
    151 C13        75.3461   63.8152   42.0587 Y4         2 LUT      0.215937
    152 C14        76.5815   64.4031   42.2121 Y5         2 LUT     -0.185793
    153 C15        77.7303   64.3279   41.3971 Y6         2 LUT     -0.057835
    154 C16        70.7262   60.7554   48.8226 Y7         2 LUT     -0.405615
    155 C17        71.2429   62.8143   50.1557 Y7         2 LUT     -0.405615
    156 C18        67.6877   64.6776   47.6214 Y9         2 LUT     -0.369639
    157 C19        70.6015   61.1670   44.2205 W1         2 LUT     -0.333362
    158 C20        74.9591   63.2479   40.7433 W2         2 LUT     -0.323439
    159 C21        88.8989   65.1161   35.1128 Z1         2 LUT      0.406104
    160 C22        89.5448   64.4844   33.8135 Z2         2 LUT     -0.404965
    161 C23        89.5669   65.4508   32.6157 Z3         2 LUT      0.391255
    162 O23        90.1612   64.6670   31.6135 S1         2 LUT     -0.528210
    163 C24        88.2831   66.2115   32.3910 W6         2 LUT     -0.258361
    164 C25        87.2847   66.3549   33.2760 Z5         2 LUT      0.133546
    165 C26        87.4530   65.7470   34.7106 W8         2 LUT     -0.147008
    166 C27        86.8524   66.4790   35.8814 Z7         2 LUT      0.023843
    167 C28        85.6157   66.2913   36.3764 Z8         2 LUT     -0.216987
    168 C29        84.9730   66.7532   37.6947 Z9         2 LUT      0.206524
    169 C30        83.8047   66.1754   38.0715 Y1         2 LUT     -0.215556
    170 C31        83.0614   66.4421   39.2673 Y2         2 LUT      0.025142
    171 C32        81.8932   65.8509   39.5690 Y3         2 LUT     -0.212209
    172 C33        80.9467   66.0659   40.6624 Y4         2 LUT      0.240937
    173 C34        79.9210   65.1261   40.7184 Y5         2 LUT     -0.218862
    174 C35        78.8601   65.0683   41.5909 Y6         2 LUT     -0.023547
    175 C36        89.9978   66.1366   35.5789 Y7         2 LUT     -0.393485
    176 C37        88.8418   63.9267   36.1548 Y7         2 LUT     -0.393485
    177 C38        85.9813   67.0900   32.9432 Y9         2 LUT     -0.387526
    178 C39        85.5580   67.8149   38.5787 W1         2 LUT     -0.322618
    179 C40        81.2422   66.9422   41.8414 W2         2 LUT     -0.358472
    180 H403       82.2324   66.7557   42.1635 R7         2 LUT      0.097720
    181 H402       81.1764   68.0021   41.5991 R7         2 LUT      0.097720
    182 H401       80.4386   66.8075   42.5960 R7         2 LUT      0.097720
    183 H393       84.8061   68.6142   38.7259 R4         2 LUT      0.082505
    184 H392       85.7936   67.3762   39.5127 R4         2 LUT      0.082505
    185 H391       86.4244   68.1738   38.0962 R4         2 LUT      0.082505
    186 H383       85.5928   67.6101   33.8213 R1         2 LUT      0.104030
    187 H382       86.1907   67.8206   32.1889 R1         2 LUT      0.104030
    188 H381       85.2404   66.4367   32.4674 R1         2 LUT      0.104030
    189 H373       88.2336   63.0549   35.7284 T4         2 LUT      0.089537
    190 H372       89.7838   63.6448   36.5145 T4         2 LUT      0.089537
    191 H371       88.3504   64.2116   37.0931 T4         2 LUT      0.089537
    192 H363       89.9215   66.4745   36.5545 T4         2 LUT      0.089537
    193 H362       91.0384   65.8642   35.3590 T4         2 LUT      0.089537
    194 H361       89.8766   67.0686   34.9606 T4         2 LUT      0.089537
    195 H222       90.5938   64.2217   33.9655 U2         2 LUT      0.127376
    196 H221       89.0637   63.5840   33.4117 U2         2 LUT      0.127376
    197 H203       73.9400   62.9867   40.5675 R7         2 LUT      0.087068
    198 H202       75.1023   63.9469   40.0011 R7         2 LUT      0.087068
    199 H201       75.4319   62.3339   40.5172 R7         2 LUT      0.087068
    200 H193       71.0319   60.9339   43.1896 R4         2 LUT      0.089716
    201 H192       70.6197   60.2187   44.7227 R4         2 LUT      0.089716
    202 H191       69.5625   61.3713   44.0403 R4         2 LUT      0.089716
    203 H183       68.1016   65.7229   47.5084 R1         2 LUT      0.094572
    204 H182       67.5267   64.1832   46.6018 R1         2 LUT      0.094572
    205 H181       66.6754   64.8839   48.0165 R1         2 LUT      0.094572
    206 H173       72.0486   63.1010   49.4510 T4         2 LUT      0.093752
    207 H172       70.8262   63.6827   50.6574 T4         2 LUT      0.093752
    208 H171       71.7021   62.1277   50.9004 T4         2 LUT      0.093752
    209 H163       71.6392   60.8757   48.3524 T4         2 LUT      0.093752
    210 H162       71.0673   60.0854   49.6550 T4         2 LUT      0.093752
    211 H161       69.9127   60.2531   48.2554 T4         2 LUT      0.093752
    212 HO3        68.7002   62.8481   52.8897 Q1         2 LUT      0.300121
    213 H8         71.6716   63.3689   46.8058 U7         2 LUT      0.080784
    214 H7         69.1110   61.8043   46.5038 U6         2 LUT      0.042190
    215 H42        67.3195   64.7640   50.0797 U5         2 LUT      0.145166
    216 H41        69.0139   65.0626   50.3980 U5         2 LUT      0.145166
    217 H35        78.7359   65.8065   42.3753 T3         2 LUT      0.077919
    218 H34        79.9370   64.3600   39.8830 T2         2 LUT      0.073626
    219 H32        81.7033   64.9727   38.8515 T1         2 LUT      0.092510
    220 H31        83.3624   67.2272   39.9361 U9         2 LUT      0.070048
    221 H30        83.3163   65.4521   37.3920 U8         2 LUT      0.085442
    222 H3         67.1634   62.8664   51.1405 U3         2 LUT     -0.031596
    223 H28        84.9140   65.7730   35.7719 U7         2 LUT      0.084728
    224 H27        87.4682   66.9331   36.6672 U6         2 LUT      0.087291
    225 H26        86.8364   64.8776   34.6698 Q6         2 LUT      0.075325
    226 H24        88.2408   66.7890   31.4290 Q5         2 LUT      0.094482
    227 H23        90.3943   66.1272   32.9525 U3         2 LUT     -0.024869
    228 H22        68.0959   61.4101   49.6843 U2         2 LUT      0.127376
    229 H21        69.0621   61.0731   51.0277 U2         2 LUT      0.127376
    230 H15        77.7585   63.6710   40.5653 T3         2 LUT      0.093200
    231 H14        76.7700   64.8220   43.1845 T2         2 LUT      0.068865
    232 H12        74.5999   64.2116   44.0854 T1         2 LUT      0.095507
    233 H11        72.7343   62.5261   42.3145 U9         2 LUT      0.068930
    234 H10        72.6641   63.9633   44.9582 U8         2 LUT      0.083911
    235 H1         89.5755   64.3180   30.9177 Q1         2 LUT      0.297311
@<TRIPOS>BOND
    1     6     1 1
    2     7     2 1
    3     8     3 1
    4     9     4 1
    5    11     4 1
    6    12     6 1
    7    13     9 1
    8    16     9 1
    9    25     5 1
   10    25    16 1
   11    26    10 1
   12    26    17 1
   13    27    18 1
   14    28    14 1
   15    28    19 1
   16    29    12 1
   17    30    13 1
   18    31    24 1
   19    32     1 1
   20    32    25 1
   21    33    21 1
   22    33    26 1
   23    34    22 1
   24    34    27 1
   25    35    23 1
   26    35    28 1
   27    36    12 1
   28    36    24 1
   29    37    13 1
   30    37    15 1
   31    38    31 1
   32    39    20 1
   33    39    32 1
   34    40     2 1
   35    40    33 1
   36    41     3 1
   37    41    34 1
   38    42     4 1
   39    42    35 1
   40    43    38 1
   41    44     5 1
   42    44    17 1
   43    44    39 1
   44    45    10 1
   45    45    18 1
   46    45    40 1
   47    46    19 1
   48    46    41 1
   49    47    14 1
   50    47    16 1
   51    47    42 1
   52    48    38 1
   53    49    48 1
   54    50    49 1
   55    51    50 1
   56    52    51 1
   57    53    51 1
   58    54    53 1
   59    55    54 1
   60    56    55 1
   61    57    56 1
   62    58    56 1
   63    59    58 1
   64    60    59 1
   65    61    60 1
   66    62    61 1
   67    63    61 1
   68    64    27 1
   69    64    46 1
   70    65     5 1
   71    65    10 1
   72    65    64 1
   73    65    14 1
   74    66    23 1
   75    67    23 1
   76    68    23 1
   77    69    22 1
   78    70    22 1
   79    71    22 1
   80    72    21 1
   81    73    21 1
   82    74    21 1
   83    75    20 1
   84    76    20 1
   85    77    20 1
   86    78    15 1
   87    79    15 1
   88    80    15 1
   89    81     8 1
   90    82     8 1
   91    83     8 1
   92    84     7 1
   93    85     7 1
   94    86     6 1
   95    87     6 1
   96    88     3 1
   97    89     3 1
   98    90     1 1
   99    91     1 1
  100    92    63 1
  101    93    63 1
  102    94    63 1
  103    95    62 1
  104    96    62 1
  105    97    62 1
  106    98    60 1
  107    99    60 1
  108   100    59 1
  109   101    59 1
  110   102    58 1
  111   103    58 1
  112   104    57 1
  113   105    57 1
  114   106    57 1
  115   107    55 1
  116   108    55 1
  117   109    54 1
  118   110    54 1
  119   111    53 1
  120   112    53 1
  121   113    19 1
  122   114    18 1
  123   115    17 1
  124   116     9 1
  125   117     2 1
  126   118    52 1
  127   119    52 1
  128   120    52 1
  129   121    51 1
  130   122    50 1
  131   123    50 1
  132   124    49 1
  133   125    49 1
  134   126    48 1
  135   127    48 1
  136   128    43 1
  137   129    43 1
  138   130    43 1
  139   131    39 1
  140   132    32 1
  141   133    31 1
  142   134    61 1
  143   135    56 1
  144   136    24 1
  145   137    24 1
  146   139   138 1
  147   140   139 1
  148   141   140 1
  149   142   140 1
  150   143   142 1
  151   144   138 1
  152   144   143 1
  153   145   144 1
  154   146   145 1
  155   147   146 1
  156   148   147 1
  157   149   148 1
  158   150   149 1
  159   151   150 1
  160   152   151 1
  161   153   152 1
  162   154   138 1
  163   155   138 1
  164   156   143 1
  165   157   147 1
  166   158   151 1
  167   160   159 1
  168   161   160 1
  169   162   161 1
  170   163   161 1
  171   164   163 1
  172   165   159 1
  173   165   164 1
  174   166   165 1
  175   167   166 1
  176   168   167 1
  177   169   168 1
  178   170   169 1
  179   171   170 1
  180   172   171 1
  181   173   172 1
  182   174   153 1
  183   174   173 1
  184   175   159 1
  185   176   159 1
  186   177   164 1
  187   178   168 1
  188   179   172 1
  189   180   179 1
  190   181   179 1
  191   182   179 1
  192   183   178 1
  193   184   178 1
  194   185   178 1
  195   186   177 1
  196   187   177 1
  197   188   177 1
  198   189   176 1
  199   190   176 1
  200   191   176 1
  201   192   175 1
  202   193   175 1
  203   194   175 1
  204   195   160 1
  205   196   160 1
  206   197   158 1
  207   198   158 1
  208   199   158 1
  209   200   157 1
  210   201   157 1
  211   202   157 1
  212   203   156 1
  213   204   156 1
  214   205   156 1
  215   206   155 1
  216   207   155 1
  217   208   155 1
  218   209   154 1
  219   210   154 1
  220   211   154 1
  221   212   141 1
  222   213   146 1
  223   214   145 1
  224   215   142 1
  225   216   142 1
  226   217   174 1
  227   218   173 1
  228   219   171 1
  229   220   170 1
  230   221   169 1
  231   222   140 1
  232   223   167 1
  233   224   166 1
  234   225   165 1
  235   226   163 1
  236   227   161 1
  237   228   139 1
  238   229   139 1
  239   230   153 1
  240   231   152 1
  241   232   150 1
  242   233   149 1
  243   234   148 1
  244   235   162 1
  245   65    153 1
  246   65    174 1
@<TRIPOS>SUBSTRUCTURE
      1 CLA               1 ****               0 ****  **** 
      2 LUT             138 ****               0 ****  **** 
