@<TRIPOS>MOLECULE
Cpptraj generated mol2 file.
  235   246     2     0     0
SMALL
USER_CHARGES


@<TRIPOS>ATOM
      1 CAA        79.1517   57.8904   35.1028 a2         1 CLA     -0.055900
      2 CAB        79.8151   62.4184   43.9356 c8         1 CLA     -0.148500
      3 CAC        72.6618   58.7338   43.8447 a2         1 CLA     -0.012600
      4 CAD        74.9106   55.6637   36.7619 ck         1 CLA      0.398800
      5 NA         78.3520   58.6599   38.5554 ns         1 CLA     -0.225500
      6 CBA        80.4039   57.6628   34.2561 a2         1 CLA     -0.135000
      7 CBB        80.4617   63.5648   44.0429 c0         1 CLA     -0.395200
      8 CBC        72.5847   57.2623   44.0027 a3         1 CLA     -0.037700
      9 CBD        76.4367   56.0880   36.3169 a1         1 CLA     -0.053900
     10 NB         78.3789   60.4554   41.0437 nm         1 CLA     -0.295700
     11 OBD        74.2546   54.7769   36.2324 o2         1 CLA     -0.494600
     12 CGA        80.8550   56.2750   33.9653 c4         1 CLA      0.827000
     13 CGD        77.2865   54.7880   36.2042 c4         1 CLA      0.655300
     14 ND         75.4630   58.0204   39.2684 nm         1 CLA     -0.291600
     15 CED        78.0009   52.7297   37.1862 a3         1 CLA      0.005400
     16 CHA        76.8529   57.1608   37.4003 cs         1 CLA     -0.123800
     17 CHB        80.1955   60.0561   39.3778 aa         1 CLA     -0.291900
     18 CHC        77.1926   60.8484   43.1484 aa         1 CLA     -0.090400
     19 CHD        73.6401   58.2960   40.9155 aa         1 CLA     -0.052000
     20 CMA        81.5586   57.7245   37.9353 a3         1 CLA     -0.230700
     21 CMB        81.7560   61.9946   41.3382 a3         1 CLA     -0.180800
     22 CMC        74.9407   60.6337   45.2277 a3         1 CLA     -0.134000
     23 CMD        72.0979   56.4545   38.6876 a3         1 CLA     -0.141100
     24 C1         81.5808   54.2364   34.8603 a2         1 CLA      0.023000
     25 C1A        78.0457   57.8736   37.4908 ac         1 CLA     -0.015100
     26 C1B        79.6912   60.6050   40.6169 cr         1 CLA      0.054700
     27 C1C        75.9926   60.1153   42.9400 cn         1 CLA     -0.005600
     28 C1D        74.1858   57.7120   39.6906 ap         1 CLA     -0.047300
     29 O1A        80.9176   55.7999   32.8197 o2         1 CLA     -0.610800
     30 O1D        78.1698   54.6356   35.3376 o2         1 CLA     -0.558200
     31 C2         82.5042   53.8735   35.9091 c8         1 CLA     -0.325100
     32 C2A        79.2986   57.6133   36.6564 a1         1 CLA      0.098600
     33 C2B        80.3675   61.5182   41.5573 cb         1 CLA      0.088500
     34 C2C        74.8435   60.0727   43.8143 cb         1 CLA      0.053700
     35 C2D        73.5459   56.8309   38.7650 cb         1 CLA      0.058900
     36 O2A        81.1993   55.6650   35.0813 o1         1 CLA     -0.437200
     37 O2D        77.1227   53.8587   37.2237 o1         1 CLA     -0.357600
     38 C3         83.6632   53.1686   35.8793 c5         1 CLA      0.031200
     39 C3A        80.3908   58.5011   37.3532 a1         1 CLA      0.166800
     40 C3B        79.4960   61.7461   42.6556 cb         1 CLA      0.035000
     41 C3C        73.8814   59.2704   43.2284 cb         1 CLA     -0.089900
     42 C3D        74.5892   56.4992   37.8953 cb         1 CLA     -0.035900
     43 C4         83.9891   51.6853   36.0960 a3         1 CLA     -0.053300
     44 C4A        79.6169   59.1427   38.4682 ac         1 CLA      0.001800
     45 C4B        78.2420   61.0278   42.2900 cn         1 CLA     -0.020900
     46 C4C        74.3983   59.0260   41.8888 cr         1 CLA     -0.044400
     47 C4D        75.7065   57.3091   38.2076 c6         1 CLA     -0.046000
     48 C5         84.8592   53.9534   35.3559 a2         1 CLA     -0.070400
     49 C6         85.1665   55.2619   36.0050 a2         1 CLA      0.043900
     50 C7         85.3611   55.1732   37.5682 a2         1 CLA     -0.150000
     51 C8         85.8142   56.4319   38.3375 a1         1 CLA      0.064200
     52 C9         87.1149   56.9684   37.6487 a3         1 CLA     -0.259300
     53 C10        86.1074   55.9726   39.8327 a2         1 CLA     -0.071900
     54 C11        86.5045   57.0736   40.8704 a2         1 CLA      0.014500
     55 C12        86.4826   56.4330   42.3586 a2         1 CLA     -0.112100
     56 C13        87.9346   56.0977   42.9557 a1         1 CLA      0.089200
     57 C14        88.5667   54.9645   42.1202 a3         1 CLA     -0.239100
     58 C15        87.9960   55.6558   44.4287 a2         1 CLA     -0.102200
     59 C16        87.3086   56.5550   45.5080 a2         1 CLA      0.023900
     60 C17        87.4444   55.9903   46.9293 a2         1 CLA     -0.105700
     61 C18        86.8247   56.8629   48.0232 a1         1 CLA      0.206800
     62 C19        86.5456   56.0323   49.2664 a3         1 CLA     -0.280100
     63 C20        87.6087   58.0871   48.3150 a3         1 CLA     -0.280100
     64 NC         75.6695   59.4853   41.7162 nx         1 CLA     -0.309200
     65 MG         76.9003   59.2472   40.0894 mg         1 CLA      0.895000
     66 HMD3       71.5661   57.4167   38.7066 dc         1 CLA      0.064300
     67 HMD2       71.7437   55.9167   37.8217 dc         1 CLA      0.064300
     68 HMD1       71.7812   55.9043   39.5650 dc         1 CLA      0.064300
     69 HMC3       75.7819   60.0649   45.5755 dc         1 CLA      0.052100
     70 HMC2       75.2372   61.6433   45.2799 dc         1 CLA      0.052100
     71 HMC1       74.0940   60.4709   45.8352 dc         1 CLA      0.052100
     72 HMB3       82.1206   62.2405   42.3730 dc         1 CLA      0.063600
     73 HMB2       82.3407   61.2570   40.8078 dc         1 CLA      0.063600
     74 HMB1       81.8166   62.9173   40.8120 dc         1 CLA      0.063600
     75 HMA3       82.2298   57.2269   37.2521 dc         1 CLA      0.058300
     76 HMA2       82.2601   58.4153   38.4566 dc         1 CLA      0.058300
     77 HMA1       81.1979   56.8592   38.5029 dc         1 CLA      0.058300
     78 HED3       78.0713   52.2852   36.1857 dc         1 CLA      0.079300
     79 HED2       78.9935   53.1037   37.4912 dc         1 CLA      0.079300
     80 HED1       77.7545   51.8298   37.8419 dc         1 CLA      0.079300
     81 HBC3       73.4220   56.8684   44.4267 dc         1 CLA      0.016300
     82 HBC2       71.7368   56.8776   44.5323 dc         1 CLA      0.016300
     83 HBC1       72.5199   56.6988   43.0441 dc         1 CLA      0.016300
     84 HBB2       80.6669   64.0307   44.9822 da         1 CLA      0.183000
     85 HBB1       80.8412   64.1135   43.1459 da         1 CLA      0.183000
     86 HBA2       80.2767   58.0738   33.2532 dc         1 CLA      0.029400
     87 HBA1       81.2517   58.2523   34.6782 dc         1 CLA      0.029400
     88 HAC2       72.6262   59.0891   44.8217 dc         1 CLA      0.029300
     89 HAC1       71.8020   59.0212   43.2208 dc         1 CLA      0.029300
     90 HAA2       78.3064   57.2245   34.7805 dc         1 CLA      0.028700
     91 HAA1       78.8291   58.9156   34.9068 dc         1 CLA      0.028700
     92 H203       88.3475   57.6145   48.9767 dc         1 CLA      0.065600
     93 H202       88.0158   58.5523   47.4766 dc         1 CLA      0.065600
     94 H201       86.8928   58.7142   48.8580 dc         1 CLA      0.065600
     95 H193       85.7687   55.2155   48.9590 dc         1 CLA      0.065600
     96 H192       87.3798   55.4246   49.5975 dc         1 CLA      0.065600
     97 H191       86.0492   56.5609   50.1033 dc         1 CLA      0.065600
     98 H172       87.0520   54.9911   46.9035 dc         1 CLA      0.027600
     99 H171       88.4716   55.8278   47.3149 dc         1 CLA      0.027600
    100 H162       87.7427   57.6040   45.3368 dc         1 CLA      0.002900
    101 H161       86.2305   56.5075   45.3739 dc         1 CLA      0.002900
    102 H152       87.5198   54.6675   44.5846 dc         1 CLA      0.029100
    103 H151       89.0173   55.3311   44.6815 dc         1 CLA      0.029100
    104 H143       89.5565   54.6776   42.4354 dc         1 CLA      0.063600
    105 H142       87.8775   54.1023   42.2416 dc         1 CLA      0.063600
    106 H141       88.6022   55.2735   41.1162 dc         1 CLA      0.063600
    107 H122       85.9992   57.1395   43.0480 dc         1 CLA      0.032500
    108 H121       85.9635   55.4784   42.3617 dc         1 CLA      0.032500
    109 H112       87.3874   57.6539   40.5809 dc         1 CLA      0.006600
    110 H111       85.7028   57.7048   40.7349 dc         1 CLA      0.006600
    111 H102       85.2059   55.4437   40.2490 dc         1 CLA      0.024100
    112 H101       86.8915   55.2791   39.9485 dc         1 CLA      0.024100
    113 HHD        72.6789   57.9005   41.2626 da         1 CLA      0.174300
    114 HHC        77.1645   61.4781   44.0520 da         1 CLA      0.136800
    115 HHB        81.1600   60.3537   39.1352 da         1 CLA      0.138300
    116 HBD        76.3964   56.4173   35.2928 dc         1 CLA      0.107700
    117 HAB        79.4412   61.9524   44.8883 da         1 CLA      0.155200
    118 H93        86.9075   57.3507   36.6804 dc         1 CLA      0.069500
    119 H92        87.5627   57.8258   38.2451 dc         1 CLA      0.069500
    120 H91        87.8430   56.1405   37.6966 dc         1 CLA      0.069500
    121 H8         84.9217   57.0642   38.2931 dc         1 CLA      0.029300
    122 H72        84.4288   54.8343   38.0164 dc         1 CLA      0.044400
    123 H71        86.0664   54.3306   37.7142 dc         1 CLA      0.044400
    124 H62        86.0322   55.6471   35.5514 dc         1 CLA      0.015600
    125 H61        84.4230   55.9776   35.7570 dc         1 CLA      0.015600
    126 H52        85.7269   53.2507   35.4350 dc         1 CLA      0.033200
    127 H51        84.5356   54.1254   34.3372 dc         1 CLA      0.033200
    128 H43        84.2830   51.3226   35.1609 dc         1 CLA      0.037000
    129 H42        84.7042   51.4813   36.9143 dc         1 CLA      0.037000
    130 H41        83.1188   51.2158   36.4845 dc         1 CLA      0.037000
    131 H3A        80.8107   59.3194   36.7377 dc         1 CLA      0.041100
    132 H2A        79.5200   56.5563   36.7336 dc         1 CLA      0.083100
    133 H2         82.3833   54.3921   36.8753 da         1 CLA      0.180900
    134 H18        85.8770   57.2194   47.6061 dc         1 CLA     -0.003900
    135 H13        88.5940   56.9148   42.8119 dc         1 CLA      0.019700
    136 H12        80.6563   53.5900   34.9856 dc         1 CLA      0.120400
    137 H11        82.0267   54.0993   33.9436 dc         1 CLA      0.120400
    138 C1         68.9421   61.6971   50.4195 Z1         2 LUT      0.509236
    139 C2         67.3969   61.7401   50.9992 Z2         2 LUT     -0.434695
    140 C3         66.7473   63.0597   51.2796 Z3         2 LUT      0.437453
    141 O3         66.6090   63.3206   52.6962 S1         2 LUT     -0.547129
    142 C4         67.4579   64.2131   50.4834 Z4         2 LUT     -0.468603
    143 C5         68.3122   63.8790   49.2834 Z5         2 LUT      0.279246
    144 C6         69.0462   62.7274   49.2184 Z6         2 LUT     -0.305473
    145 C7         69.6059   62.2705   48.0062 Z7         2 LUT      0.069402
    146 C8         70.5613   62.8615   47.2813 Z8         2 LUT     -0.191631
    147 C9         71.0330   62.4566   45.9319 Z9         2 LUT      0.196698
    148 C10        72.1311   63.0710   45.3776 Y1         2 LUT     -0.208611
    149 C11        72.7209   62.8870   44.0800 Y2         2 LUT      0.030784
    150 C12        73.6873   63.8123   43.7011 Y3         2 LUT     -0.220316
    151 C13        74.5669   63.5986   42.5072 Y4         2 LUT      0.215937
    152 C14        75.8065   64.1924   42.4730 Y5         2 LUT     -0.185793
    153 C15        76.8695   64.1602   41.5103 Y6         2 LUT     -0.057835
    154 C16        69.1711   60.1688   50.2154 Y7         2 LUT     -0.405615
    155 C17        70.0504   62.0984   51.4623 Y7         2 LUT     -0.405615
    156 C18        68.1080   64.8920   48.2809 Y9         2 LUT     -0.369639
    157 C19        70.2468   61.3960   45.2654 W1         2 LUT     -0.333362
    158 C20        73.9948   62.7414   41.3830 W2         2 LUT     -0.323439
    159 C21        88.5841   65.3357   35.1144 Z1         2 LUT      0.406104
    160 C22        89.2986   64.9801   33.8008 Z2         2 LUT     -0.404965
    161 C23        89.4351   66.1792   32.8397 Z3         2 LUT      0.391255
    162 O23        90.1429   65.6931   31.7091 S1         2 LUT     -0.528210
    163 C24        88.1333   66.9743   32.7072 W6         2 LUT     -0.258361
    164 C25        87.0428   66.7938   33.4795 Z5         2 LUT      0.133546
    165 C26        87.0731   65.9299   34.8110 W8         2 LUT     -0.147008
    166 C27        86.2488   66.5322   35.9980 Z7         2 LUT      0.023843
    167 C28        85.0889   65.9651   36.4555 Z8         2 LUT     -0.216987
    168 C29        84.2964   66.4040   37.6486 Z9         2 LUT      0.206524
    169 C30        83.1927   65.6627   38.0760 Y1         2 LUT     -0.215556
    170 C31        82.3376   65.7882   39.3181 Y2         2 LUT      0.025142
    171 C32        81.1562   65.1626   39.5197 Y3         2 LUT     -0.212209
    172 C33        80.2517   65.4563   40.6699 Y4         2 LUT      0.240937
    173 C34        79.0333   64.8449   40.6937 Y5         2 LUT     -0.218862
    174 C35        78.0137   64.9365   41.6205 Y6         2 LUT     -0.023547
    175 C36        89.3999   66.3446   36.0244 Y7         2 LUT     -0.393485
    176 C37        88.5726   64.0250   35.9295 Y7         2 LUT     -0.393485
    177 C38        85.7938   67.6329   33.1988 Y9         2 LUT     -0.387526
    178 C39        84.7049   67.5105   38.5765 W1         2 LUT     -0.322618
    179 C40        80.7969   66.2405   41.8553 W2         2 LUT     -0.358472
    180 H403       81.0192   67.2589   41.5086 R7         2 LUT      0.097720
    181 H402       80.1613   66.2688   42.7056 R7         2 LUT      0.097720
    182 H401       81.6634   65.7440   42.1438 R7         2 LUT      0.097720
    183 H393       83.8744   67.8214   39.1730 R4         2 LUT      0.082505
    184 H392       85.5370   67.2323   39.1736 R4         2 LUT      0.082505
    185 H391       84.9888   68.3900   37.9750 R4         2 LUT      0.082505
    186 H383       84.9352   67.0442   33.5368 R1         2 LUT      0.104030
    187 H382       85.8104   68.5340   33.8809 R1         2 LUT      0.104030
    188 H381       85.7279   67.9770   32.1988 R1         2 LUT      0.104030
    189 H373       89.4388   63.5087   36.2642 T4         2 LUT      0.089537
    190 H372       88.1398   64.1565   36.8807 T4         2 LUT      0.089537
    191 H371       87.9275   63.3479   35.4036 T4         2 LUT      0.089537
    192 H363       89.6662   67.3125   35.5531 T4         2 LUT      0.089537
    193 H362       88.8803   66.5094   36.9749 T4         2 LUT      0.089537
    194 H361       90.2981   65.8625   36.3206 T4         2 LUT      0.089537
    195 H222       90.2607   64.5468   34.1131 U2         2 LUT      0.127376
    196 H221       88.7201   64.2719   33.2003 U2         2 LUT      0.127376
    197 H203       72.9463   62.9614   41.1996 R7         2 LUT      0.087068
    198 H202       74.6447   62.9346   40.5345 R7         2 LUT      0.087068
    199 H201       74.1295   61.6878   41.6715 R7         2 LUT      0.087068
    200 H193       70.1278   60.4983   45.8677 R4         2 LUT      0.089716
    201 H192       69.2846   61.7037   44.9118 R4         2 LUT      0.089716
    202 H191       70.7923   60.9196   44.4488 R4         2 LUT      0.089716
    203 H183       68.9887   65.5004   48.1413 R1         2 LUT      0.094572
    204 H182       67.9438   64.4094   47.2839 R1         2 LUT      0.094572
    205 H181       67.2885   65.6068   48.4829 R1         2 LUT      0.094572
    206 H173       71.0440   61.7185   51.1418 T4         2 LUT      0.093752
    207 H172       70.1555   63.2244   51.5334 T4         2 LUT      0.093752
    208 H171       69.7564   61.7539   52.4158 T4         2 LUT      0.093752
    209 H163       69.0330   59.5716   51.1805 T4         2 LUT      0.093752
    210 H162       68.4865   59.7187   49.4800 T4         2 LUT      0.093752
    211 H161       70.2307   60.0368   49.9843 T4         2 LUT      0.093752
    212 HO3        67.3884   63.0909   53.2834 Q1         2 LUT      0.300121
    213 H8         71.0419   63.8130   47.7641 U7         2 LUT      0.080784
    214 H7         69.1612   61.4031   47.6101 U6         2 LUT      0.042190
    215 H42        66.6379   64.8406   50.2134 U5         2 LUT      0.145166
    216 H41        68.1197   64.8489   51.0734 U5         2 LUT      0.145166
    217 H35        78.1585   65.4831   42.5245 T3         2 LUT      0.077919
    218 H34        78.9054   64.0306   39.9958 T2         2 LUT      0.073626
    219 H32        80.8166   64.3596   38.7999 T1         2 LUT      0.092510
    220 H31        82.6901   66.5185   39.9926 U9         2 LUT      0.070048
    221 H30        82.7910   64.8037   37.4673 U8         2 LUT      0.085442
    222 H3         65.7684   63.0439   50.7519 U3         2 LUT     -0.031596
    223 H28        84.7450   65.0902   35.8819 U7         2 LUT      0.084728
    224 H27        86.6222   67.4576   36.4422 U6         2 LUT      0.087291
    225 H26        86.5422   64.9415   34.3993 Q6         2 LUT      0.075325
    226 H24        88.1898   67.6900   31.8885 Q5         2 LUT      0.094482
    227 H23        90.1065   66.8801   33.3455 U3         2 LUT     -0.024869
    228 H22        66.6419   61.1787   50.3637 U2         2 LUT      0.127376
    229 H21        67.4583   61.1660   51.9009 U2         2 LUT      0.127376
    230 H15        76.7350   63.5928   40.6296 T3         2 LUT      0.093200
    231 H14        75.9556   64.7315   43.3799 T2         2 LUT      0.068865
    232 H12        73.8504   64.5985   44.3950 T1         2 LUT      0.095507
    233 H11        72.6462   61.9408   43.5939 U9         2 LUT      0.068930
    234 H10        72.5296   63.9387   45.9444 U8         2 LUT      0.083911
    235 H1         89.6450   65.7408   30.8688 Q1         2 LUT      0.297311
@<TRIPOS>BOND
    1     6     1 1
    2     7     2 1
    3     8     3 1
    4     9     4 1
    5    11     4 1
    6    12     6 1
    7    13     9 1
    8    16     9 1
    9    25     5 1
   10    25    16 1
   11    26    10 1
   12    26    17 1
   13    27    18 1
   14    28    14 1
   15    28    19 1
   16    29    12 1
   17    30    13 1
   18    31    24 1
   19    32     1 1
   20    32    25 1
   21    33    21 1
   22    33    26 1
   23    34    22 1
   24    34    27 1
   25    35    23 1
   26    35    28 1
   27    36    12 1
   28    36    24 1
   29    37    13 1
   30    37    15 1
   31    38    31 1
   32    39    20 1
   33    39    32 1
   34    40     2 1
   35    40    33 1
   36    41     3 1
   37    41    34 1
   38    42     4 1
   39    42    35 1
   40    43    38 1
   41    44     5 1
   42    44    17 1
   43    44    39 1
   44    45    10 1
   45    45    18 1
   46    45    40 1
   47    46    19 1
   48    46    41 1
   49    47    14 1
   50    47    16 1
   51    47    42 1
   52    48    38 1
   53    49    48 1
   54    50    49 1
   55    51    50 1
   56    52    51 1
   57    53    51 1
   58    54    53 1
   59    55    54 1
   60    56    55 1
   61    57    56 1
   62    58    56 1
   63    59    58 1
   64    60    59 1
   65    61    60 1
   66    62    61 1
   67    63    61 1
   68    64    27 1
   69    64    46 1
   70    65     5 1
   71    65    10 1
   72    65    64 1
   73    65    14 1
   74    66    23 1
   75    67    23 1
   76    68    23 1
   77    69    22 1
   78    70    22 1
   79    71    22 1
   80    72    21 1
   81    73    21 1
   82    74    21 1
   83    75    20 1
   84    76    20 1
   85    77    20 1
   86    78    15 1
   87    79    15 1
   88    80    15 1
   89    81     8 1
   90    82     8 1
   91    83     8 1
   92    84     7 1
   93    85     7 1
   94    86     6 1
   95    87     6 1
   96    88     3 1
   97    89     3 1
   98    90     1 1
   99    91     1 1
  100    92    63 1
  101    93    63 1
  102    94    63 1
  103    95    62 1
  104    96    62 1
  105    97    62 1
  106    98    60 1
  107    99    60 1
  108   100    59 1
  109   101    59 1
  110   102    58 1
  111   103    58 1
  112   104    57 1
  113   105    57 1
  114   106    57 1
  115   107    55 1
  116   108    55 1
  117   109    54 1
  118   110    54 1
  119   111    53 1
  120   112    53 1
  121   113    19 1
  122   114    18 1
  123   115    17 1
  124   116     9 1
  125   117     2 1
  126   118    52 1
  127   119    52 1
  128   120    52 1
  129   121    51 1
  130   122    50 1
  131   123    50 1
  132   124    49 1
  133   125    49 1
  134   126    48 1
  135   127    48 1
  136   128    43 1
  137   129    43 1
  138   130    43 1
  139   131    39 1
  140   132    32 1
  141   133    31 1
  142   134    61 1
  143   135    56 1
  144   136    24 1
  145   137    24 1
  146   139   138 1
  147   140   139 1
  148   141   140 1
  149   142   140 1
  150   143   142 1
  151   144   138 1
  152   144   143 1
  153   145   144 1
  154   146   145 1
  155   147   146 1
  156   148   147 1
  157   149   148 1
  158   150   149 1
  159   151   150 1
  160   152   151 1
  161   153   152 1
  162   154   138 1
  163   155   138 1
  164   156   143 1
  165   157   147 1
  166   158   151 1
  167   160   159 1
  168   161   160 1
  169   162   161 1
  170   163   161 1
  171   164   163 1
  172   165   159 1
  173   165   164 1
  174   166   165 1
  175   167   166 1
  176   168   167 1
  177   169   168 1
  178   170   169 1
  179   171   170 1
  180   172   171 1
  181   173   172 1
  182   174   153 1
  183   174   173 1
  184   175   159 1
  185   176   159 1
  186   177   164 1
  187   178   168 1
  188   179   172 1
  189   180   179 1
  190   181   179 1
  191   182   179 1
  192   183   178 1
  193   184   178 1
  194   185   178 1
  195   186   177 1
  196   187   177 1
  197   188   177 1
  198   189   176 1
  199   190   176 1
  200   191   176 1
  201   192   175 1
  202   193   175 1
  203   194   175 1
  204   195   160 1
  205   196   160 1
  206   197   158 1
  207   198   158 1
  208   199   158 1
  209   200   157 1
  210   201   157 1
  211   202   157 1
  212   203   156 1
  213   204   156 1
  214   205   156 1
  215   206   155 1
  216   207   155 1
  217   208   155 1
  218   209   154 1
  219   210   154 1
  220   211   154 1
  221   212   141 1
  222   213   146 1
  223   214   145 1
  224   215   142 1
  225   216   142 1
  226   217   174 1
  227   218   173 1
  228   219   171 1
  229   220   170 1
  230   221   169 1
  231   222   140 1
  232   223   167 1
  233   224   166 1
  234   225   165 1
  235   226   163 1
  236   227   161 1
  237   228   139 1
  238   229   139 1
  239   230   153 1
  240   231   152 1
  241   232   150 1
  242   233   149 1
  243   234   148 1
  244   235   162 1
  245   65    153 1
  246   65    174 1
@<TRIPOS>SUBSTRUCTURE
      1 CLA               1 ****               0 ****  **** 
      2 LUT             138 ****               0 ****  **** 
