@<TRIPOS>MOLECULE
Cpptraj generated mol2 file.
  235   246     2     0     0
SMALL
USER_CHARGES


@<TRIPOS>ATOM
      1 CAA        77.4109   58.2778   35.2082 a2         1 CLA     -0.055900
      2 CAB        77.3020   61.6740   44.2302 c8         1 CLA     -0.148500
      3 CAC        70.4084   57.4274   43.7531 a2         1 CLA     -0.012600
      4 CAD        73.4795   55.2691   36.2748 ck         1 CLA      0.398800
      5 NA         76.4822   58.3277   38.5504 ns         1 CLA     -0.225500
      6 CBA        78.5629   58.1759   34.2193 a2         1 CLA     -0.135000
      7 CBB        76.9374   61.2762   45.4538 c0         1 CLA     -0.395200
      8 CBC        70.1858   55.9077   43.6107 a3         1 CLA     -0.037700
      9 CBD        74.9334   55.9346   35.9373 a1         1 CLA     -0.053900
     10 NB         76.1320   59.7533   41.2068 nm         1 CLA     -0.295700
     11 OBD        72.8155   54.6252   35.4934 o2         1 CLA     -0.494600
     12 CGA        79.1106   56.7846   33.8101 c4         1 CLA      0.827000
     13 CGD        75.9158   54.7882   35.5475 c4         1 CLA      0.655300
     14 ND         73.7365   57.2065   39.2002 nm         1 CLA     -0.291600
     15 CED        76.7043   52.6611   36.3081 a3         1 CLA      0.005400
     16 CHA        75.2281   56.7561   37.2174 cs         1 CLA     -0.123800
     17 CHB        78.0725   59.7053   39.6429 aa         1 CLA     -0.291900
     18 CHC        74.8281   59.8848   43.2705 aa         1 CLA     -0.090400
     19 CHD        71.8290   57.0385   40.7411 aa         1 CLA     -0.052000
     20 CMA        79.8107   57.6950   38.0225 a3         1 CLA     -0.230700
     21 CMB        79.3633   61.5877   41.6562 a3         1 CLA     -0.180800
     22 CMC        72.6826   59.1938   45.3248 a3         1 CLA     -0.134000
     23 CMD        70.7349   55.0165   38.5359 a3         1 CLA     -0.141100
     24 C1         80.1336   54.7533   34.5948 a2         1 CLA      0.023000
     25 C1A        76.3410   57.5254   37.4462 ac         1 CLA     -0.015100
     26 C1B        77.3530   60.0977   40.8037 cr         1 CLA      0.054700
     27 C1C        73.7418   59.0697   42.9411 cn         1 CLA     -0.005600
     28 C1D        72.4976   56.7631   39.4929 ap         1 CLA     -0.047300
     29 O1A        78.9033   56.2313   32.7844 o2         1 CLA     -0.610800
     30 O1D        76.3643   54.5534   34.4636 o2         1 CLA     -0.558200
     31 C2         80.4630   54.2619   36.0308 c8         1 CLA     -0.325100
     32 C2A        77.6191   57.5921   36.5638 a1         1 CLA      0.098600
     33 C2B        77.9609   60.9245   41.8416 cb         1 CLA      0.088500
     34 C2C        72.6540   58.7272   43.8686 cb         1 CLA      0.053700
     35 C2D        72.0467   55.8037   38.5451 cb         1 CLA      0.058900
     36 O2A        79.8594   56.1567   34.8167 o1         1 CLA     -0.437200
     37 O2D        76.0334   53.9486   36.5526 o1         1 CLA     -0.357600
     38 C3         81.1392   53.2005   36.5503 c5         1 CLA      0.031200
     39 C3A        78.5909   58.4458   37.4292 a1         1 CLA      0.166800
     40 C3B        77.0317   60.9739   42.9624 cb         1 CLA      0.035000
     41 C3C        71.6749   57.9997   43.1361 cb         1 CLA     -0.089900
     42 C3D        73.0891   55.7954   37.5915 cb         1 CLA     -0.035900
     43 C4         80.5621   51.8812   36.9948 a3         1 CLA     -0.053300
     44 C4A        77.7003   58.8988   38.5884 ac         1 CLA      0.001800
     45 C4B        75.9163   60.1836   42.5198 cn         1 CLA     -0.020900
     46 C4C        72.3615   57.7666   41.8267 cr         1 CLA     -0.044400
     47 C4D        74.0781   56.6949   38.0549 c6         1 CLA     -0.046000
     48 C5         82.6497   53.2715   36.8659 a2         1 CLA     -0.070400
     49 C6         83.2830   54.7114   36.7098 a2         1 CLA      0.043900
     50 C7         83.1571   55.4268   38.0463 a2         1 CLA     -0.150000
     51 C8         83.5674   56.9336   38.0087 a1         1 CLA      0.064200
     52 C9         84.9418   57.1406   37.2672 a3         1 CLA     -0.259300
     53 C10        83.7108   57.5453   39.4579 a2         1 CLA     -0.071900
     54 C11        82.6296   57.3258   40.4258 a2         1 CLA      0.014500
     55 C12        82.5225   58.3633   41.6018 a2         1 CLA     -0.112100
     56 C13        83.5001   58.2045   42.8080 a1         1 CLA      0.089200
     57 C14        83.3281   56.9630   43.6910 a3         1 CLA     -0.239100
     58 C15        83.7034   59.5251   43.6475 a2         1 CLA     -0.102200
     59 C16        82.4187   60.0065   44.3663 a2         1 CLA      0.023900
     60 C17        82.7721   61.1039   45.3756 a2         1 CLA     -0.105700
     61 C18        81.8206   61.1573   46.5758 a1         1 CLA      0.206800
     62 C19        82.1442   62.4421   47.3715 a3         1 CLA     -0.280100
     63 C20        80.3307   61.0587   46.2094 a3         1 CLA     -0.280100
     64 NC         73.5469   58.4940   41.7250 nx         1 CLA     -0.309200
     65 MG         74.9225   58.5971   40.1399 mg         1 CLA      0.895000
     66 HMD3       69.8430   55.6371   38.7332 dc         1 CLA      0.064300
     67 HMD2       70.5393   54.5653   37.5511 dc         1 CLA      0.064300
     68 HMD1       70.7942   54.2217   39.2813 dc         1 CLA      0.064300
     69 HMC3       73.4625   58.8052   45.8990 dc         1 CLA      0.052100
     70 HMC2       72.8596   60.2863   45.3023 dc         1 CLA      0.052100
     71 HMC1       71.7029   58.9991   45.8240 dc         1 CLA      0.052100
     72 HMB3       79.4561   62.1548   40.7250 dc         1 CLA      0.063600
     73 HMB2       79.5124   62.4182   42.3032 dc         1 CLA      0.063600
     74 HMB1       80.1662   60.8578   41.6929 dc         1 CLA      0.063600
     75 HMA3       80.2279   57.0594   37.2313 dc         1 CLA      0.058300
     76 HMA2       80.5725   58.4056   38.3312 dc         1 CLA      0.058300
     77 HMA1       79.4434   56.9632   38.7175 dc         1 CLA      0.058300
     78 HED3       77.7296   52.7258   36.0169 dc         1 CLA      0.079300
     79 HED2       76.5836   52.1155   37.2947 dc         1 CLA      0.079300
     80 HED1       76.1741   52.1304   35.4836 dc         1 CLA      0.079300
     81 HBC3       71.0773   55.5969   44.1346 dc         1 CLA      0.016300
     82 HBC2       69.3291   55.5417   44.2585 dc         1 CLA      0.016300
     83 HBC1       70.1175   55.4492   42.5937 dc         1 CLA      0.016300
     84 HBB2       77.2217   61.8474   46.3522 da         1 CLA      0.183000
     85 HBB1       76.4089   60.3462   45.6138 da         1 CLA      0.183000
     86 HBA2       78.0576   58.5048   33.2947 dc         1 CLA      0.029400
     87 HBA1       79.3896   58.8074   34.4341 dc         1 CLA      0.029400
     88 HAC2       70.3755   57.7237   44.7777 dc         1 CLA      0.029300
     89 HAC1       69.5508   57.9017   43.2627 dc         1 CLA      0.029300
     90 HAA2       76.7552   57.6175   34.7009 dc         1 CLA      0.028700
     91 HAA1       77.0481   59.2884   35.2617 dc         1 CLA      0.028700
     92 H203       80.0271   60.1022   45.8386 dc         1 CLA      0.065600
     93 H202       79.6821   61.4043   46.9974 dc         1 CLA      0.065600
     94 H201       80.1618   61.7505   45.3474 dc         1 CLA      0.065600
     95 H193       81.7056   63.3690   47.0109 dc         1 CLA      0.065600
     96 H192       81.6981   62.2363   48.3134 dc         1 CLA      0.065600
     97 H191       83.2150   62.5069   47.5119 dc         1 CLA      0.065600
     98 H172       83.7608   61.1855   45.7828 dc         1 CLA      0.027600
     99 H171       82.5574   62.0268   44.8715 dc         1 CLA      0.027600
    100 H162       81.7509   60.4720   43.5782 dc         1 CLA      0.002900
    101 H161       82.0999   59.1455   44.9405 dc         1 CLA      0.002900
    102 H152       84.4612   59.2852   44.4270 dc         1 CLA      0.029100
    103 H151       84.1724   60.2440   42.9439 dc         1 CLA      0.029100
    104 H143       82.3912   57.0993   44.1892 dc         1 CLA      0.063600
    105 H142       83.4182   56.0818   43.0313 dc         1 CLA      0.063600
    106 H141       84.1367   56.9613   44.4228 dc         1 CLA      0.063600
    107 H122       82.5321   59.3737   41.1316 dc         1 CLA      0.032500
    108 H121       81.5099   58.2336   41.8419 dc         1 CLA      0.032500
    109 H112       81.6718   57.3546   39.8999 dc         1 CLA      0.006600
    110 H111       82.5855   56.2811   40.7890 dc         1 CLA      0.006600
    111 H102       84.6348   57.1597   39.8961 dc         1 CLA      0.024100
    112 H101       83.9451   58.5950   39.3170 dc         1 CLA      0.024100
    113 HHD        70.8261   56.7643   40.7760 da         1 CLA      0.174300
    114 HHC        74.8383   60.5361   44.1711 da         1 CLA      0.136800
    115 HHB        79.0422   60.0773   39.4708 da         1 CLA      0.138300
    116 HBD        74.9102   56.5928   35.0707 dc         1 CLA      0.107700
    117 HAB        77.8911   62.6013   44.1467 da         1 CLA      0.155200
    118 H93        85.7065   56.4924   37.7019 dc         1 CLA      0.069500
    119 H92        84.7536   56.8319   36.2502 dc         1 CLA      0.069500
    120 H91        85.2852   58.1750   37.2746 dc         1 CLA      0.069500
    121 H8         82.8038   57.4407   37.5090 dc         1 CLA      0.029300
    122 H72        82.1680   55.2087   38.5562 dc         1 CLA      0.044400
    123 H71        83.9011   54.9676   38.7077 dc         1 CLA      0.044400
    124 H62        84.3504   54.5820   36.5241 dc         1 CLA      0.015600
    125 H61        82.8497   55.1940   35.8639 dc         1 CLA      0.015600
    126 H52        82.6822   53.0009   37.8763 dc         1 CLA      0.033200
    127 H51        83.1435   52.5070   36.3313 dc         1 CLA      0.033200
    128 H43        80.9125   51.5319   37.9857 dc         1 CLA      0.037000
    129 H42        79.5216   51.8947   37.0466 dc         1 CLA      0.037000
    130 H41        80.9187   51.2371   36.2170 dc         1 CLA      0.037000
    131 H3A        79.0233   59.3191   37.0050 dc         1 CLA      0.041100
    132 H2A        78.1065   56.6254   36.5083 dc         1 CLA      0.083100
    133 H2         80.1396   54.9100   36.8554 da         1 CLA      0.180900
    134 H18        82.0636   60.2758   47.2301 dc         1 CLA     -0.003900
    135 H13        84.4375   58.1455   42.3250 dc         1 CLA      0.019700
    136 H12        79.2065   54.1864   34.2951 dc         1 CLA      0.120400
    137 H11        81.0041   54.6163   33.9008 dc         1 CLA      0.120400
    138 C1         67.7880   61.2125   50.7432 Z1         2 LUT      0.509236
    139 C2         66.3922   61.1308   51.4429 Z2         2 LUT     -0.434695
    140 C3         65.6039   62.4792   51.6752 Z3         2 LUT      0.437453
    141 O3         65.6965   62.8768   53.0840 S1         2 LUT     -0.547129
    142 C4         66.0124   63.4812   50.6512 Z4         2 LUT     -0.468603
    143 C5         66.7565   62.9914   49.4294 Z5         2 LUT      0.279246
    144 C6         67.6410   62.0312   49.4614 Z6         2 LUT     -0.305473
    145 C7         68.0780   61.3320   48.1751 Z7         2 LUT      0.069402
    146 C8         68.9229   61.9302   47.2843 Z8         2 LUT     -0.191631
    147 C9         69.4634   61.5244   45.9630 Z9         2 LUT      0.196698
    148 C10        70.3594   62.2730   45.2251 Y1         2 LUT     -0.208611
    149 C11        70.9833   61.9840   43.9675 Y2         2 LUT      0.030784
    150 C12        71.9674   62.8890   43.4645 Y3         2 LUT     -0.220316
    151 C13        72.8881   62.7626   42.3838 Y4         2 LUT      0.215937
    152 C14        73.9775   63.6125   42.4316 Y5         2 LUT     -0.185793
    153 C15        75.1354   63.6538   41.5775 Y6         2 LUT     -0.057835
    154 C16        68.1732   59.8207   50.4688 Y7         2 LUT     -0.405615
    155 C17        68.8486   61.7718   51.6865 Y7         2 LUT     -0.405615
    156 C18        66.2248   63.7372   48.1781 Y9         2 LUT     -0.369639
    157 C19        68.8067   60.2268   45.4508 W1         2 LUT     -0.333362
    158 C20        72.5955   61.8584   41.2196 W2         2 LUT     -0.323439
    159 C21        86.4627   65.2535   35.5270 Z1         2 LUT      0.406104
    160 C22        87.3063   64.7660   34.2764 Z2         2 LUT     -0.404965
    161 C23        87.7036   65.8628   33.3359 Z3         2 LUT      0.391255
    162 O23        88.3555   65.2696   32.1966 S1         2 LUT     -0.528210
    163 C24        86.4579   66.7897   33.0348 W6         2 LUT     -0.258361
    164 C25        85.3535   66.8054   33.7584 Z5         2 LUT      0.133546
    165 C26        85.1166   65.8424   34.9423 W8         2 LUT     -0.147008
    166 C27        84.1545   66.5239   35.8945 Z7         2 LUT      0.023843
    167 C28        83.1535   65.8066   36.4735 Z8         2 LUT     -0.216987
    168 C29        82.3071   66.3016   37.5705 Z9         2 LUT      0.206524
    169 C30        81.4664   65.4227   38.2296 Y1         2 LUT     -0.215556
    170 C31        80.5955   65.7170   39.3381 Y2         2 LUT      0.025142
    171 C32        79.4678   64.9885   39.6845 Y3         2 LUT     -0.212209
    172 C33        78.4648   65.0494   40.7903 Y4         2 LUT      0.240937
    173 C34        77.4402   64.2366   40.8107 Y5         2 LUT     -0.218862
    174 C35        76.3225   64.2806   41.6563 Y6         2 LUT     -0.023547
    175 C36        87.3910   66.1518   36.3832 Y7         2 LUT     -0.393485
    176 C37        86.2661   64.0695   36.4823 Y7         2 LUT     -0.393485
    177 C38        84.1227   67.6146   33.2159 Y9         2 LUT     -0.387526
    178 C39        82.4782   67.7699   38.0063 W1         2 LUT     -0.322618
    179 C40        78.7478   66.2607   41.6248 W2         2 LUT     -0.358472
    180 H403       78.8522   67.1974   40.9940 R7         2 LUT      0.097720
    181 H402       77.9358   66.4409   42.3346 R7         2 LUT      0.097720
    182 H401       79.6290   66.0545   42.2315 R7         2 LUT      0.097720
    183 H393       81.4227   68.1986   37.9923 R4         2 LUT      0.082505
    184 H392       82.7537   67.8252   39.0491 R4         2 LUT      0.082505
    185 H391       83.0438   68.4762   37.4631 R4         2 LUT      0.082505
    186 H383       84.4258   68.2918   32.3877 R1         2 LUT      0.104030
    187 H382       83.3100   66.9478   32.8423 R1         2 LUT      0.104030
    188 H381       83.6121   68.1726   34.0399 R1         2 LUT      0.104030
    189 H373       85.5755   64.3457   37.3115 T4         2 LUT      0.089537
    190 H372       85.8636   63.1996   35.9475 T4         2 LUT      0.089537
    191 H371       87.1883   63.7272   36.9947 T4         2 LUT      0.089537
    192 H363       88.4863   65.9701   36.4176 T4         2 LUT      0.089537
    193 H362       87.3825   67.1994   36.0337 T4         2 LUT      0.089537
    194 H361       87.0912   66.2014   37.4058 T4         2 LUT      0.089537
    195 H222       88.1845   64.1557   34.5960 U2         2 LUT      0.127376
    196 H221       86.7061   63.9771   33.8285 U2         2 LUT      0.127376
    197 H203       71.7845   62.0809   40.5096 R7         2 LUT      0.087068
    198 H202       73.4712   61.7396   40.5687 R7         2 LUT      0.087068
    199 H201       72.3584   60.7854   41.4517 R7         2 LUT      0.087068
    200 H193       69.1770   59.3435   46.0700 R4         2 LUT      0.089716
    201 H192       67.7013   60.2124   45.5541 R4         2 LUT      0.089716
    202 H191       69.1654   60.0064   44.4131 R4         2 LUT      0.089716
    203 H183       65.1471   63.8696   48.2256 R1         2 LUT      0.094572
    204 H182       66.7716   64.6411   48.1163 R1         2 LUT      0.094572
    205 H181       66.4625   63.2124   47.2792 R1         2 LUT      0.094572
    206 H173       69.8195   61.5914   51.2315 T4         2 LUT      0.093752
    207 H172       68.7077   62.8280   51.7097 T4         2 LUT      0.093752
    208 H171       68.9073   61.3933   52.7721 T4         2 LUT      0.093752
    209 H163       68.4411   59.2903   51.4421 T4         2 LUT      0.093752
    210 H162       67.4270   59.2072   49.8165 T4         2 LUT      0.093752
    211 H161       69.0693   59.8569   49.8424 T4         2 LUT      0.093752
    212 HO3        65.0207   62.4107   53.6518 Q1         2 LUT      0.300121
    213 H8         69.2089   62.8767   47.6425 U7         2 LUT      0.080784
    214 H7         67.5336   60.4206   47.9635 U6         2 LUT      0.042190
    215 H42        65.2345   64.2031   50.3464 U5         2 LUT      0.145166
    216 H41        66.7525   64.0880   51.2178 U5         2 LUT      0.145166
    217 H35        76.4458   64.8510   42.5002 T3         2 LUT      0.077919
    218 H34        77.3441   63.5732   39.9757 T2         2 LUT      0.073626
    219 H32        79.2607   64.1043   39.0726 T1         2 LUT      0.092510
    220 H31        80.8122   66.6653   39.8367 U9         2 LUT      0.070048
    221 H30        81.5162   64.3993   37.9181 U8         2 LUT      0.085442
    222 H3         64.5647   62.3050   51.4166 U3         2 LUT     -0.031596
    223 H28        82.9261   64.8900   35.9826 U7         2 LUT      0.084728
    224 H27        84.5765   67.3925   36.3210 U6         2 LUT      0.087291
    225 H26        84.4874   65.0051   34.4519 Q6         2 LUT      0.075325
    226 H24        86.2981   67.3888   32.2113 Q5         2 LUT      0.094482
    227 H23        88.4466   66.4919   33.9011 U3         2 LUT     -0.024869
    228 H22        65.7642   60.6222   50.7050 U2         2 LUT      0.127376
    229 H21        66.5510   60.4279   52.2919 U2         2 LUT      0.127376
    230 H15        75.1770   62.9383   40.7657 T3         2 LUT      0.093200
    231 H14        74.1470   64.4324   43.1976 T2         2 LUT      0.068865
    232 H12        72.1671   63.7214   44.1727 T1         2 LUT      0.095507
    233 H11        70.7673   61.0278   43.4982 U9         2 LUT      0.068930
    234 H10        70.7439   63.2166   45.6549 U8         2 LUT      0.083911
    235 H1         87.6402   64.9864   31.6125 Q1         2 LUT      0.297311
@<TRIPOS>BOND
    1     6     1 1
    2     7     2 1
    3     8     3 1
    4     9     4 1
    5    11     4 1
    6    12     6 1
    7    13     9 1
    8    16     9 1
    9    25     5 1
   10    25    16 1
   11    26    10 1
   12    26    17 1
   13    27    18 1
   14    28    14 1
   15    28    19 1
   16    29    12 1
   17    30    13 1
   18    31    24 1
   19    32     1 1
   20    32    25 1
   21    33    21 1
   22    33    26 1
   23    34    22 1
   24    34    27 1
   25    35    23 1
   26    35    28 1
   27    36    12 1
   28    36    24 1
   29    37    13 1
   30    37    15 1
   31    38    31 1
   32    39    20 1
   33    39    32 1
   34    40     2 1
   35    40    33 1
   36    41     3 1
   37    41    34 1
   38    42     4 1
   39    42    35 1
   40    43    38 1
   41    44     5 1
   42    44    17 1
   43    44    39 1
   44    45    10 1
   45    45    18 1
   46    45    40 1
   47    46    19 1
   48    46    41 1
   49    47    14 1
   50    47    16 1
   51    47    42 1
   52    48    38 1
   53    49    48 1
   54    50    49 1
   55    51    50 1
   56    52    51 1
   57    53    51 1
   58    54    53 1
   59    55    54 1
   60    56    55 1
   61    57    56 1
   62    58    56 1
   63    59    58 1
   64    60    59 1
   65    61    60 1
   66    62    61 1
   67    63    61 1
   68    64    27 1
   69    64    46 1
   70    65     5 1
   71    65    10 1
   72    65    64 1
   73    65    14 1
   74    66    23 1
   75    67    23 1
   76    68    23 1
   77    69    22 1
   78    70    22 1
   79    71    22 1
   80    72    21 1
   81    73    21 1
   82    74    21 1
   83    75    20 1
   84    76    20 1
   85    77    20 1
   86    78    15 1
   87    79    15 1
   88    80    15 1
   89    81     8 1
   90    82     8 1
   91    83     8 1
   92    84     7 1
   93    85     7 1
   94    86     6 1
   95    87     6 1
   96    88     3 1
   97    89     3 1
   98    90     1 1
   99    91     1 1
  100    92    63 1
  101    93    63 1
  102    94    63 1
  103    95    62 1
  104    96    62 1
  105    97    62 1
  106    98    60 1
  107    99    60 1
  108   100    59 1
  109   101    59 1
  110   102    58 1
  111   103    58 1
  112   104    57 1
  113   105    57 1
  114   106    57 1
  115   107    55 1
  116   108    55 1
  117   109    54 1
  118   110    54 1
  119   111    53 1
  120   112    53 1
  121   113    19 1
  122   114    18 1
  123   115    17 1
  124   116     9 1
  125   117     2 1
  126   118    52 1
  127   119    52 1
  128   120    52 1
  129   121    51 1
  130   122    50 1
  131   123    50 1
  132   124    49 1
  133   125    49 1
  134   126    48 1
  135   127    48 1
  136   128    43 1
  137   129    43 1
  138   130    43 1
  139   131    39 1
  140   132    32 1
  141   133    31 1
  142   134    61 1
  143   135    56 1
  144   136    24 1
  145   137    24 1
  146   139   138 1
  147   140   139 1
  148   141   140 1
  149   142   140 1
  150   143   142 1
  151   144   138 1
  152   144   143 1
  153   145   144 1
  154   146   145 1
  155   147   146 1
  156   148   147 1
  157   149   148 1
  158   150   149 1
  159   151   150 1
  160   152   151 1
  161   153   152 1
  162   154   138 1
  163   155   138 1
  164   156   143 1
  165   157   147 1
  166   158   151 1
  167   160   159 1
  168   161   160 1
  169   162   161 1
  170   163   161 1
  171   164   163 1
  172   165   159 1
  173   165   164 1
  174   166   165 1
  175   167   166 1
  176   168   167 1
  177   169   168 1
  178   170   169 1
  179   171   170 1
  180   172   171 1
  181   173   172 1
  182   174   153 1
  183   174   173 1
  184   175   159 1
  185   176   159 1
  186   177   164 1
  187   178   168 1
  188   179   172 1
  189   180   179 1
  190   181   179 1
  191   182   179 1
  192   183   178 1
  193   184   178 1
  194   185   178 1
  195   186   177 1
  196   187   177 1
  197   188   177 1
  198   189   176 1
  199   190   176 1
  200   191   176 1
  201   192   175 1
  202   193   175 1
  203   194   175 1
  204   195   160 1
  205   196   160 1
  206   197   158 1
  207   198   158 1
  208   199   158 1
  209   200   157 1
  210   201   157 1
  211   202   157 1
  212   203   156 1
  213   204   156 1
  214   205   156 1
  215   206   155 1
  216   207   155 1
  217   208   155 1
  218   209   154 1
  219   210   154 1
  220   211   154 1
  221   212   141 1
  222   213   146 1
  223   214   145 1
  224   215   142 1
  225   216   142 1
  226   217   174 1
  227   218   173 1
  228   219   171 1
  229   220   170 1
  230   221   169 1
  231   222   140 1
  232   223   167 1
  233   224   166 1
  234   225   165 1
  235   226   163 1
  236   227   161 1
  237   228   139 1
  238   229   139 1
  239   230   153 1
  240   231   152 1
  241   232   150 1
  242   233   149 1
  243   234   148 1
  244   235   162 1
  245   65    153 1
  246   65    174 1
@<TRIPOS>SUBSTRUCTURE
      1 CLA               1 ****               0 ****  **** 
      2 LUT             138 ****               0 ****  **** 
