@<TRIPOS>MOLECULE
Cpptraj generated mol2 file.
  235   246     2     0     0
SMALL
USER_CHARGES


@<TRIPOS>ATOM
      1 CAA        79.5932   58.5421   34.5366 a2         1 CLA     -0.055900
      2 CAB        79.6654   62.9575   43.2967 c8         1 CLA     -0.148500
      3 CAC        72.8607   58.3985   43.3890 a2         1 CLA     -0.012600
      4 CAD        75.2756   56.1126   35.7842 ck         1 CLA      0.398800
      5 NA         78.5037   59.2530   37.9086 ns         1 CLA     -0.225500
      6 CBA        80.7724   58.1133   33.5833 a2         1 CLA     -0.135000
      7 CBB        80.8007   62.7583   44.0703 c0         1 CLA     -0.395200
      8 CBC        73.3833   57.2299   44.2935 a3         1 CLA     -0.037700
      9 CBD        76.7458   56.5662   35.4010 a1         1 CLA     -0.053900
     10 NB         78.4214   60.8741   40.3565 nm         1 CLA     -0.295700
     11 OBD        74.6595   55.2529   35.1477 o2         1 CLA     -0.494600
     12 CGA        81.0311   56.6135   33.3581 c4         1 CLA      0.827000
     13 CGD        77.4965   55.3336   35.2616 c4         1 CLA      0.655300
     14 ND         75.7915   58.2517   38.6248 nm         1 CLA     -0.291600
     15 CED        77.8856   53.0971   36.0151 a3         1 CLA      0.005400
     16 CHA        77.1278   57.5994   36.5771 cs         1 CLA     -0.123800
     17 CHB        80.2619   60.7121   38.8331 aa         1 CLA     -0.291900
     18 CHC        77.1533   61.1221   42.5279 aa         1 CLA     -0.090400
     19 CHD        73.9573   58.1633   40.4008 aa         1 CLA     -0.052000
     20 CMA        81.8188   58.3789   37.5567 a3         1 CLA     -0.230700
     21 CMB        81.6295   62.6730   40.7381 a3         1 CLA     -0.180800
     22 CMC        74.9078   60.5258   44.7740 a3         1 CLA     -0.134000
     23 CMD        72.6006   56.3793   37.9918 a3         1 CLA     -0.141100
     24 C1         82.3726   54.7694   34.0116 a2         1 CLA      0.023000
     25 C1A        78.3188   58.3748   36.8299 ac         1 CLA     -0.015100
     26 C1B        79.6765   61.2732   39.9563 cr         1 CLA      0.054700
     27 C1C        75.9749   60.3995   42.3318 cn         1 CLA     -0.005600
     28 C1D        74.5328   57.8149   39.1351 ap         1 CLA     -0.047300
     29 O1A        80.7172   56.0708   32.3024 o2         1 CLA     -0.610800
     30 O1D        78.2224   55.0719   34.3272 o2         1 CLA     -0.558200
     31 C2         83.3864   54.3841   35.0178 c8         1 CLA     -0.325100
     32 C2A        79.7020   58.2090   36.0548 a1         1 CLA      0.098600
     33 C2B        80.2689   62.1780   40.8763 cb         1 CLA      0.088500
     34 C2C        74.9744   60.0283   43.3792 cb         1 CLA      0.053700
     35 C2D        73.9535   56.9551   38.0599 cb         1 CLA      0.058900
     36 O2A        81.8881   56.1192   34.3007 o1         1 CLA     -0.437200
     37 O2D        77.2624   54.4376   36.2879 o1         1 CLA     -0.357600
     38 C3         84.6514   53.9878   34.6751 c5         1 CLA      0.031200
     39 C3A        80.6470   59.0968   36.7705 a1         1 CLA      0.166800
     40 C3B        79.4001   62.2229   41.9977 cb         1 CLA      0.035000
     41 C3C        74.0151   59.1812   42.7701 cb         1 CLA     -0.089900
     42 C3D        74.9852   56.7752   37.0682 cb         1 CLA     -0.035900
     43 C4         85.0473   52.5260   34.3914 a3         1 CLA     -0.053300
     44 C4A        79.7398   59.7496   37.9136 ac         1 CLA      0.001800
     45 C4B        78.2385   61.3775   41.6419 cn         1 CLA     -0.020900
     46 C4C        74.4510   59.0669   41.3704 cr         1 CLA     -0.044400
     47 C4D        76.0076   57.6294   37.4114 c6         1 CLA     -0.046000
     48 C5         85.6403   55.0085   34.3824 a2         1 CLA     -0.070400
     49 C6         85.7026   56.2468   35.3113 a2         1 CLA      0.043900
     50 C7         86.4784   55.8546   36.6730 a2         1 CLA     -0.150000
     51 C8         86.4834   57.0156   37.7541 a1         1 CLA      0.064200
     52 C9         87.2082   58.3279   37.3591 a3         1 CLA     -0.259300
     53 C10        87.0772   56.4932   39.1108 a2         1 CLA     -0.071900
     54 C11        87.1586   57.5276   40.2846 a2         1 CLA      0.014500
     55 C12        87.1635   56.7670   41.6402 a2         1 CLA     -0.112100
     56 C13        87.2420   57.6621   42.9070 a1         1 CLA      0.089200
     57 C14        88.6755   58.3107   42.9402 a3         1 CLA     -0.239100
     58 C15        86.8869   56.7274   44.1728 a2         1 CLA     -0.102200
     59 C16        86.4342   57.4260   45.5066 a2         1 CLA      0.023900
     60 C17        87.0542   56.5831   46.6268 a2         1 CLA     -0.105700
     61 C18        86.5272   56.9817   47.9927 a1         1 CLA      0.206800
     62 C19        87.2167   56.1045   49.0835 a3         1 CLA     -0.280100
     63 C20        86.8204   58.4341   48.1758 a3         1 CLA     -0.280100
     64 NC         75.6605   59.7722   41.1325 nx         1 CLA     -0.309200
     65 MG         77.0123   59.6682   39.3434 mg         1 CLA      0.895000
     66 HMD3       72.1774   56.2344   38.9974 dc         1 CLA      0.064300
     67 HMD2       72.0288   57.1126   37.3859 dc         1 CLA      0.064300
     68 HMD1       72.6535   55.4614   37.3925 dc         1 CLA      0.064300
     69 HMC3       75.6212   60.0313   45.3821 dc         1 CLA      0.052100
     70 HMC2       75.3329   61.5477   44.7132 dc         1 CLA      0.052100
     71 HMC1       73.8413   60.6336   45.1709 dc         1 CLA      0.052100
     72 HMB3       81.7097   63.7749   40.9830 dc         1 CLA      0.063600
     73 HMB2       82.1978   62.2224   41.5176 dc         1 CLA      0.063600
     74 HMB1       82.1101   62.5238   39.7782 dc         1 CLA      0.063600
     75 HMA3       82.4265   57.7295   36.9441 dc         1 CLA      0.058300
     76 HMA2       82.4484   59.1779   37.9824 dc         1 CLA      0.058300
     77 HMA1       81.4410   57.8898   38.4107 dc         1 CLA      0.058300
     78 HED3       77.6983   52.5058   36.9310 dc         1 CLA      0.079300
     79 HED2       77.5421   52.7111   35.0846 dc         1 CLA      0.079300
     80 HED1       78.9880   53.1636   35.9559 dc         1 CLA      0.079300
     81 HBC3       74.0288   56.6500   43.6183 dc         1 CLA      0.016300
     82 HBC2       73.9673   57.6353   45.0934 dc         1 CLA      0.016300
     83 HBC1       72.5557   56.6121   44.6566 dc         1 CLA      0.016300
     84 HBB2       80.9483   63.2126   45.0976 da         1 CLA      0.183000
     85 HBB1       81.6485   62.0904   43.7459 da         1 CLA      0.183000
     86 HBA2       80.8265   58.5894   32.5824 dc         1 CLA      0.029400
     87 HBA1       81.7928   58.4598   33.9138 dc         1 CLA      0.029400
     88 HAC2       72.3346   59.0519   44.0712 dc         1 CLA      0.029300
     89 HAC1       72.1074   58.1149   42.6127 dc         1 CLA      0.029300
     90 HAA2       78.6840   57.9174   34.2882 dc         1 CLA      0.028700
     91 HAA1       79.3873   59.6275   34.5437 dc         1 CLA      0.028700
     92 H203       87.9158   58.5930   48.1735 dc         1 CLA      0.065600
     93 H202       86.2326   59.1274   47.5630 dc         1 CLA      0.065600
     94 H201       86.4036   58.6096   49.1878 dc         1 CLA      0.065600
     95 H193       86.9953   55.0627   49.0489 dc         1 CLA      0.065600
     96 H192       88.2787   56.0356   48.9399 dc         1 CLA      0.065600
     97 H191       86.9676   56.4435   50.0858 dc         1 CLA      0.065600
     98 H172       86.7597   55.6258   46.4579 dc         1 CLA      0.027600
     99 H171       88.1788   56.6067   46.5625 dc         1 CLA      0.027600
    100 H162       86.8191   58.4105   45.4809 dc         1 CLA      0.002900
    101 H161       85.3631   57.6380   45.5636 dc         1 CLA      0.002900
    102 H152       85.9308   56.1926   43.9831 dc         1 CLA      0.029100
    103 H151       87.6642   55.9769   44.2659 dc         1 CLA      0.029100
    104 H143       89.0328   58.8731   43.8823 dc         1 CLA      0.063600
    105 H142       89.4034   57.4813   42.7493 dc         1 CLA      0.063600
    106 H141       88.6352   59.0952   42.2153 dc         1 CLA      0.063600
    107 H122       86.3342   56.0984   41.7323 dc         1 CLA      0.032500
    108 H121       87.9964   56.1094   41.7582 dc         1 CLA      0.032500
    109 H112       88.1076   58.0250   40.1408 dc         1 CLA      0.006600
    110 H111       86.3945   58.3150   40.3757 dc         1 CLA      0.006600
    111 H102       86.4143   55.6647   39.4505 dc         1 CLA      0.024100
    112 H101       88.1072   56.0908   39.0202 dc         1 CLA      0.024100
    113 HHD        73.0276   57.7746   40.5957 da         1 CLA      0.174300
    114 HHC        77.3146   61.4801   43.4935 da         1 CLA      0.136800
    115 HHB        81.2374   61.0232   38.4279 da         1 CLA      0.138300
    116 HBD        76.6253   57.0541   34.4406 dc         1 CLA      0.107700
    117 HAB        78.8211   63.4315   43.7567 da         1 CLA      0.155200
    118 H93        86.4441   58.8783   36.7958 dc         1 CLA      0.069500
    119 H92        87.3059   59.0279   38.2417 dc         1 CLA      0.069500
    120 H91        88.1883   58.2168   36.8160 dc         1 CLA      0.069500
    121 H8         85.3873   57.1415   37.9630 dc         1 CLA      0.029300
    122 H72        85.8725   55.0709   37.1317 dc         1 CLA      0.044400
    123 H71        87.4750   55.5635   36.5056 dc         1 CLA      0.044400
    124 H62        86.3644   57.0081   34.8644 dc         1 CLA      0.015600
    125 H61        84.7596   56.6399   35.5769 dc         1 CLA      0.015600
    126 H52        86.6823   54.5453   34.3254 dc         1 CLA      0.033200
    127 H51        85.4094   55.3715   33.4154 dc         1 CLA      0.033200
    128 H43        85.2017   52.2799   33.3279 dc         1 CLA      0.037000
    129 H42        85.8693   52.2132   35.0457 dc         1 CLA      0.037000
    130 H41        84.2048   51.9283   34.6999 dc         1 CLA      0.037000
    131 H3A        81.0079   59.9112   36.1967 dc         1 CLA      0.041100
    132 H2A        80.0517   57.1751   36.1595 dc         1 CLA      0.083100
    133 H2         83.0895   54.3059   36.0737 da         1 CLA      0.180900
    134 H18        85.3953   56.9153   47.9404 dc         1 CLA     -0.003900
    135 H13        86.4512   58.3792   42.8386 dc         1 CLA      0.019700
    136 H12        81.6189   54.0687   34.1921 dc         1 CLA      0.120400
    137 H11        82.7260   54.5369   33.0114 dc         1 CLA      0.120400
    138 C1         69.1367   62.3843   50.1763 Z1         2 LUT      0.509236
    139 C2         67.8047   61.9994   50.7654 Z2         2 LUT     -0.434695
    140 C3         66.7751   63.1474   50.9538 Z3         2 LUT      0.437453
    141 O3         66.4060   63.2283   52.3797 S1         2 LUT     -0.547129
    142 C4         67.2092   64.5278   50.4653 Z4         2 LUT     -0.468603
    143 C5         67.8861   64.3632   49.1674 Z5         2 LUT      0.279246
    144 C6         68.7996   63.3827   49.0479 Z6         2 LUT     -0.305473
    145 C7         69.2840   63.0912   47.6894 Z7         2 LUT      0.069402
    146 C8         70.4996   63.3743   47.1440 Z8         2 LUT     -0.191631
    147 C9         71.0726   62.8794   45.8757 Z9         2 LUT      0.196698
    148 C10        72.1993   63.5187   45.4269 Y1         2 LUT     -0.208611
    149 C11        72.9205   63.2913   44.2139 Y2         2 LUT      0.030784
    150 C12        73.9703   64.0179   43.8435 Y3         2 LUT     -0.220316
    151 C13        74.7129   63.9155   42.6464 Y4         2 LUT      0.215937
    152 C14        75.9605   64.5572   42.5501 Y5         2 LUT     -0.185793
    153 C15        76.9449   64.7704   41.5711 Y6         2 LUT     -0.057835
    154 C16        69.7965   61.1083   49.6539 Y7         2 LUT     -0.405615
    155 C17        69.9317   63.1348   51.3253 Y7         2 LUT     -0.405615
    156 C18        67.2240   65.1019   48.0354 Y9         2 LUT     -0.369639
    157 C19        70.3104   61.9319   45.1605 W1         2 LUT     -0.333362
    158 C20        74.1078   63.0628   41.4669 W2         2 LUT     -0.323439
    159 C21        88.4630   65.9343   35.5020 Z1         2 LUT      0.406104
    160 C22        89.0782   65.2943   34.2044 Z2         2 LUT     -0.404965
    161 C23        89.1345   66.1582   33.0322 Z3         2 LUT      0.391255
    162 O23        89.5525   65.3477   31.9813 S1         2 LUT     -0.528210
    163 C24        87.7292   66.7569   32.8385 W6         2 LUT     -0.258361
    164 C25        86.8152   66.8812   33.7240 Z5         2 LUT      0.133546
    165 C26        86.9068   66.4007   35.1737 W8         2 LUT     -0.147008
    166 C27        86.2813   67.2464   36.2699 Z7         2 LUT      0.023843
    167 C28        85.0202   67.0870   36.6182 Z8         2 LUT     -0.216987
    168 C29        84.4505   67.2466   38.0077 Z9         2 LUT      0.206524
    169 C30        83.2419   66.7136   38.2636 Y1         2 LUT     -0.215556
    170 C31        82.4156   66.7248   39.4172 Y2         2 LUT      0.025142
    171 C32        81.1959   66.1506   39.5987 Y3         2 LUT     -0.212209
    172 C33        80.4074   66.2029   40.7754 Y4         2 LUT      0.240937
    173 C34        79.2095   65.5272   40.7471 Y5         2 LUT     -0.218862
    174 C35        78.1150   65.4187   41.7769 Y6         2 LUT     -0.023547
    175 C36        89.4764   67.0788   35.8360 Y7         2 LUT     -0.393485
    176 C37        88.6357   65.0133   36.7160 Y7         2 LUT     -0.393485
    177 C38        85.5476   67.6456   33.3875 Y9         2 LUT     -0.387526
    178 C39        85.1124   68.1290   39.1080 W1         2 LUT     -0.322618
    179 C40        80.8509   67.1253   41.8469 W2         2 LUT     -0.358472
    180 H403       80.5913   68.0982   41.5366 R7         2 LUT      0.097720
    181 H402       80.2134   67.0203   42.7163 R7         2 LUT      0.097720
    182 H401       81.8916   67.0696   42.1280 R7         2 LUT      0.097720
    183 H393       84.3593   68.8130   39.5376 R4         2 LUT      0.082505
    184 H392       85.4181   67.5329   39.9645 R4         2 LUT      0.082505
    185 H391       85.9931   68.6261   38.8491 R4         2 LUT      0.082505
    186 H383       84.8046   66.8453   33.0725 R1         2 LUT      0.104030
    187 H382       85.1858   68.2349   34.2523 R1         2 LUT      0.104030
    188 H381       85.8615   68.3632   32.5666 R1         2 LUT      0.104030
    189 H373       89.6261   64.6464   36.8266 T4         2 LUT      0.089537
    190 H372       88.3132   65.5996   37.5647 T4         2 LUT      0.089537
    191 H371       87.9777   64.1608   36.6493 T4         2 LUT      0.089537
    192 H363       89.5231   67.8378   35.0056 T4         2 LUT      0.089537
    193 H362       89.3534   67.5761   36.8392 T4         2 LUT      0.089537
    194 H361       90.4219   66.6567   35.8705 T4         2 LUT      0.089537
    195 H222       90.0872   64.9063   34.4489 U2         2 LUT      0.127376
    196 H221       88.6502   64.3911   33.9782 U2         2 LUT      0.127376
    197 H203       73.8858   61.9929   41.7206 R7         2 LUT      0.087068
    198 H202       73.1850   63.4723   41.2018 R7         2 LUT      0.087068
    199 H201       74.7428   62.9123   40.5554 R7         2 LUT      0.087068
    200 H193       69.3697   62.3521   44.6437 R4         2 LUT      0.089716
    201 H192       70.7914   61.5225   44.3534 R4         2 LUT      0.089716
    202 H191       70.1039   61.1365   45.8602 R4         2 LUT      0.089716
    203 H183       66.1442   65.2733   48.2314 R1         2 LUT      0.094572
    204 H182       67.7334   66.0277   47.8671 R1         2 LUT      0.094572
    205 H181       67.2205   64.4718   47.1797 R1         2 LUT      0.094572
    206 H173       70.6210   63.8338   50.9171 T4         2 LUT      0.093752
    207 H172       69.3787   63.7370   52.0540 T4         2 LUT      0.093752
    208 H171       70.4777   62.3623   51.8337 T4         2 LUT      0.093752
    209 H163       69.6744   60.4212   50.4951 T4         2 LUT      0.093752
    210 H162       69.2606   60.7661   48.8040 T4         2 LUT      0.093752
    211 H161       70.8043   61.2176   49.2824 T4         2 LUT      0.093752
    212 HO3        67.1487   63.3372   53.0083 Q1         2 LUT      0.300121
    213 H8         71.2350   63.8659   47.8183 U7         2 LUT      0.080784
    214 H7         68.5808   62.4620   47.1331 U6         2 LUT      0.042190
    215 H42        66.3076   65.0975   50.3738 U5         2 LUT      0.145166
    216 H41        67.7226   65.0916   51.2328 U5         2 LUT      0.145166
    217 H35        78.3205   65.8165   42.7731 T3         2 LUT      0.077919
    218 H34        78.9943   64.9911   39.8268 T2         2 LUT      0.073626
    219 H32        80.7026   65.5988   38.8229 T1         2 LUT      0.092510
    220 H31        82.7723   67.2057   40.3077 U9         2 LUT      0.070048
    221 H30        82.8561   66.1059   37.5108 U8         2 LUT      0.085442
    222 H3         65.8484   62.8031   50.3553 U3         2 LUT     -0.031596
    223 H28        84.3654   66.5464   35.9697 U7         2 LUT      0.084728
    224 H27        87.0592   67.7280   36.8770 U6         2 LUT      0.087291
    225 H26        86.4865   65.3924   35.0338 Q6         2 LUT      0.075325
    226 H24        87.5958   67.2409   31.8414 Q5         2 LUT      0.094482
    227 H23        89.8921   66.9280   33.2166 U3         2 LUT     -0.024869
    228 H22        67.2900   61.4056   50.0137 U2         2 LUT      0.127376
    229 H21        67.8321   61.3598   51.6923 U2         2 LUT      0.127376
    230 H15        76.8039   64.2308   40.6111 T3         2 LUT      0.093200
    231 H14        76.1040   65.1632   43.3929 T2         2 LUT      0.068865
    232 H12        74.3743   64.7269   44.6545 T1         2 LUT      0.095507
    233 H11        72.5418   62.5970   43.4980 U9         2 LUT      0.068930
    234 H10        72.6406   64.3079   46.0010 U8         2 LUT      0.083911
    235 H1         89.8096   65.8639   31.1673 Q1         2 LUT      0.297311
@<TRIPOS>BOND
    1     6     1 1
    2     7     2 1
    3     8     3 1
    4     9     4 1
    5    11     4 1
    6    12     6 1
    7    13     9 1
    8    16     9 1
    9    25     5 1
   10    25    16 1
   11    26    10 1
   12    26    17 1
   13    27    18 1
   14    28    14 1
   15    28    19 1
   16    29    12 1
   17    30    13 1
   18    31    24 1
   19    32     1 1
   20    32    25 1
   21    33    21 1
   22    33    26 1
   23    34    22 1
   24    34    27 1
   25    35    23 1
   26    35    28 1
   27    36    12 1
   28    36    24 1
   29    37    13 1
   30    37    15 1
   31    38    31 1
   32    39    20 1
   33    39    32 1
   34    40     2 1
   35    40    33 1
   36    41     3 1
   37    41    34 1
   38    42     4 1
   39    42    35 1
   40    43    38 1
   41    44     5 1
   42    44    17 1
   43    44    39 1
   44    45    10 1
   45    45    18 1
   46    45    40 1
   47    46    19 1
   48    46    41 1
   49    47    14 1
   50    47    16 1
   51    47    42 1
   52    48    38 1
   53    49    48 1
   54    50    49 1
   55    51    50 1
   56    52    51 1
   57    53    51 1
   58    54    53 1
   59    55    54 1
   60    56    55 1
   61    57    56 1
   62    58    56 1
   63    59    58 1
   64    60    59 1
   65    61    60 1
   66    62    61 1
   67    63    61 1
   68    64    27 1
   69    64    46 1
   70    65     5 1
   71    65    10 1
   72    65    64 1
   73    65    14 1
   74    66    23 1
   75    67    23 1
   76    68    23 1
   77    69    22 1
   78    70    22 1
   79    71    22 1
   80    72    21 1
   81    73    21 1
   82    74    21 1
   83    75    20 1
   84    76    20 1
   85    77    20 1
   86    78    15 1
   87    79    15 1
   88    80    15 1
   89    81     8 1
   90    82     8 1
   91    83     8 1
   92    84     7 1
   93    85     7 1
   94    86     6 1
   95    87     6 1
   96    88     3 1
   97    89     3 1
   98    90     1 1
   99    91     1 1
  100    92    63 1
  101    93    63 1
  102    94    63 1
  103    95    62 1
  104    96    62 1
  105    97    62 1
  106    98    60 1
  107    99    60 1
  108   100    59 1
  109   101    59 1
  110   102    58 1
  111   103    58 1
  112   104    57 1
  113   105    57 1
  114   106    57 1
  115   107    55 1
  116   108    55 1
  117   109    54 1
  118   110    54 1
  119   111    53 1
  120   112    53 1
  121   113    19 1
  122   114    18 1
  123   115    17 1
  124   116     9 1
  125   117     2 1
  126   118    52 1
  127   119    52 1
  128   120    52 1
  129   121    51 1
  130   122    50 1
  131   123    50 1
  132   124    49 1
  133   125    49 1
  134   126    48 1
  135   127    48 1
  136   128    43 1
  137   129    43 1
  138   130    43 1
  139   131    39 1
  140   132    32 1
  141   133    31 1
  142   134    61 1
  143   135    56 1
  144   136    24 1
  145   137    24 1
  146   139   138 1
  147   140   139 1
  148   141   140 1
  149   142   140 1
  150   143   142 1
  151   144   138 1
  152   144   143 1
  153   145   144 1
  154   146   145 1
  155   147   146 1
  156   148   147 1
  157   149   148 1
  158   150   149 1
  159   151   150 1
  160   152   151 1
  161   153   152 1
  162   154   138 1
  163   155   138 1
  164   156   143 1
  165   157   147 1
  166   158   151 1
  167   160   159 1
  168   161   160 1
  169   162   161 1
  170   163   161 1
  171   164   163 1
  172   165   159 1
  173   165   164 1
  174   166   165 1
  175   167   166 1
  176   168   167 1
  177   169   168 1
  178   170   169 1
  179   171   170 1
  180   172   171 1
  181   173   172 1
  182   174   153 1
  183   174   173 1
  184   175   159 1
  185   176   159 1
  186   177   164 1
  187   178   168 1
  188   179   172 1
  189   180   179 1
  190   181   179 1
  191   182   179 1
  192   183   178 1
  193   184   178 1
  194   185   178 1
  195   186   177 1
  196   187   177 1
  197   188   177 1
  198   189   176 1
  199   190   176 1
  200   191   176 1
  201   192   175 1
  202   193   175 1
  203   194   175 1
  204   195   160 1
  205   196   160 1
  206   197   158 1
  207   198   158 1
  208   199   158 1
  209   200   157 1
  210   201   157 1
  211   202   157 1
  212   203   156 1
  213   204   156 1
  214   205   156 1
  215   206   155 1
  216   207   155 1
  217   208   155 1
  218   209   154 1
  219   210   154 1
  220   211   154 1
  221   212   141 1
  222   213   146 1
  223   214   145 1
  224   215   142 1
  225   216   142 1
  226   217   174 1
  227   218   173 1
  228   219   171 1
  229   220   170 1
  230   221   169 1
  231   222   140 1
  232   223   167 1
  233   224   166 1
  234   225   165 1
  235   226   163 1
  236   227   161 1
  237   228   139 1
  238   229   139 1
  239   230   153 1
  240   231   152 1
  241   232   150 1
  242   233   149 1
  243   234   148 1
  244   235   162 1
  245   65    153 1
  246   65    174 1
@<TRIPOS>SUBSTRUCTURE
      1 CLA               1 ****               0 ****  **** 
      2 LUT             138 ****               0 ****  **** 
