@<TRIPOS>MOLECULE
Cpptraj generated mol2 file.
  235   246     2     0     0
SMALL
USER_CHARGES


@<TRIPOS>ATOM
      1 CAA        78.1060   58.5608   34.5464 a2         1 CLA     -0.055900
      2 CAB        78.2241   62.9455   43.1452 c8         1 CLA     -0.148500
      3 CAC        71.2502   58.6642   43.1583 a2         1 CLA     -0.012600
      4 CAD        73.9910   55.9293   35.9713 ck         1 CLA      0.398800
      5 NA         77.1589   59.1362   37.9785 ns         1 CLA     -0.225500
      6 CBA        79.2939   58.4774   33.6823 a2         1 CLA     -0.135000
      7 CBB        79.3162   62.8967   43.8822 c0         1 CLA     -0.395200
      8 CBC        71.3326   57.1219   43.2753 a3         1 CLA     -0.037700
      9 CBD        75.4827   56.3770   35.6902 a1         1 CLA     -0.053900
     10 NB         76.9647   60.7962   40.2875 nm         1 CLA     -0.295700
     11 OBD        73.3326   55.1319   35.3705 o2         1 CLA     -0.494600
     12 CGA        79.8620   56.9896   33.4398 c4         1 CLA      0.827000
     13 CGD        76.3994   55.2093   35.8328 c4         1 CLA      0.655300
     14 ND         74.4100   58.2040   38.6778 nm         1 CLA     -0.291600
     15 CED        76.9198   53.1918   37.0745 a3         1 CLA      0.005400
     16 CHA        75.8282   57.4835   36.7536 cs         1 CLA     -0.123800
     17 CHB        78.8753   60.6086   38.7479 aa         1 CLA     -0.291900
     18 CHC        75.7547   61.2079   42.3443 aa         1 CLA     -0.090400
     19 CHD        72.5001   58.2923   40.1375 aa         1 CLA     -0.052000
     20 CMA        80.4628   58.4125   37.4662 a3         1 CLA     -0.230700
     21 CMB        80.3619   62.7208   40.5512 a3         1 CLA     -0.180800
     22 CMC        73.5184   60.6004   44.6341 a3         1 CLA     -0.134000
     23 CMD        71.3445   56.2011   37.9301 a3         1 CLA     -0.141100
     24 C1         81.4050   55.3163   34.2478 a2         1 CLA      0.023000
     25 C1A        77.0209   58.2294   36.9213 ac         1 CLA     -0.015100
     26 C1B        78.2564   61.0812   39.8593 cr         1 CLA      0.054700
     27 C1C        74.5857   60.4206   42.2435 cn         1 CLA     -0.005600
     28 C1D        73.1064   57.8458   38.9426 ap         1 CLA     -0.047300
     29 O1A        79.7531   56.3724   32.3751 o2         1 CLA     -0.610800
     30 O1D        77.4452   54.9859   35.2320 o2         1 CLA     -0.558200
     31 C2         81.2434   54.5847   35.5719 c8         1 CLA     -0.325100
     32 C2A        78.3003   58.1665   36.0478 a1         1 CLA      0.098600
     33 C2B        78.9450   62.0437   40.8022 cb         1 CLA      0.088500
     34 C2C        73.4667   60.1884   43.1328 cb         1 CLA      0.053700
     35 C2D        72.6200   56.8691   38.0062 cb         1 CLA      0.058900
     36 O2A        80.6625   56.6030   34.4759 o1         1 CLA     -0.437200
     37 O2D        76.0545   54.3866   36.8449 o1         1 CLA     -0.357600
     38 C3         82.1845   54.0948   36.3637 c5         1 CLA      0.031200
     39 C3A        79.2772   59.0774   36.7667 a1         1 CLA      0.166800
     40 C3B        78.0331   62.1720   41.8724 cb         1 CLA      0.035000
     41 C3C        72.5116   59.3298   42.5160 cb         1 CLA     -0.089900
     42 C3D        73.6465   56.6917   37.1697 cb         1 CLA     -0.035900
     43 C4         82.6672   52.5900   36.4089 a3         1 CLA     -0.053300
     44 C4A        78.4026   59.6449   37.9219 ac         1 CLA      0.001800
     45 C4B        76.8466   61.3825   41.5534 cn         1 CLA     -0.020900
     46 C4C        73.0593   59.0821   41.1667 cr         1 CLA     -0.044400
     47 C4D        74.7150   57.5053   37.5914 c6         1 CLA     -0.046000
     48 C5         82.6648   54.9795   37.5404 a2         1 CLA     -0.070400
     49 C6         83.6471   56.1146   37.2240 a2         1 CLA      0.043900
     50 C7         83.7627   57.0617   38.5300 a2         1 CLA     -0.150000
     51 C8         84.6958   58.3659   38.4053 a1         1 CLA      0.064200
     52 C9         86.1854   57.8783   38.1129 a3         1 CLA     -0.259300
     53 C10        84.6234   59.3643   39.5716 a2         1 CLA     -0.071900
     54 C11        83.3230   59.5858   40.3037 a2         1 CLA      0.014500
     55 C12        83.4976   60.4093   41.5975 a2         1 CLA     -0.112100
     56 C13        84.2786   59.7053   42.8057 a1         1 CLA      0.089200
     57 C14        83.5388   58.3595   43.3187 a3         1 CLA     -0.239100
     58 C15        84.4425   60.7336   43.9428 a2         1 CLA     -0.102200
     59 C16        83.1585   61.3252   44.5523 a2         1 CLA      0.023900
     60 C17        83.4501   62.2107   45.7798 a2         1 CLA     -0.105700
     61 C18        82.3846   63.1728   46.3603 a1         1 CLA      0.206800
     62 C19        81.2359   62.5144   47.1162 a3         1 CLA     -0.280100
     63 C20        83.0435   64.2532   47.2174 a3         1 CLA     -0.280100
     64 NC         74.2761   59.7299   41.0921 nx         1 CLA     -0.309200
     65 MG         75.6599   59.5924   39.4426 mg         1 CLA      0.895000
     66 HMD3       71.2129   55.7018   38.9381 dc         1 CLA      0.064300
     67 HMD2       70.5915   56.9250   37.7229 dc         1 CLA      0.064300
     68 HMD1       71.2079   55.3403   37.2987 dc         1 CLA      0.064300
     69 HMC3       74.1628   59.8747   45.1279 dc         1 CLA      0.052100
     70 HMC2       73.9372   61.5961   44.7570 dc         1 CLA      0.052100
     71 HMC1       72.5176   60.5815   45.0681 dc         1 CLA      0.052100
     72 HMB3       80.4228   63.5074   41.1971 dc         1 CLA      0.063600
     73 HMB2       81.2138   61.9602   40.6983 dc         1 CLA      0.063600
     74 HMB1       80.3557   63.1628   39.5770 dc         1 CLA      0.063600
     75 HMA3       81.0932   59.1160   37.9513 dc         1 CLA      0.058300
     76 HMA2       80.1916   57.5759   38.1315 dc         1 CLA      0.058300
     77 HMA1       81.0758   57.9420   36.6734 dc         1 CLA      0.058300
     78 HED3       77.1725   52.6458   36.1435 dc         1 CLA      0.079300
     79 HED2       77.8290   53.3341   37.6835 dc         1 CLA      0.079300
     80 HED1       76.3998   52.3725   37.6368 dc         1 CLA      0.079300
     81 HBC3       71.6895   56.7197   42.3631 dc         1 CLA      0.016300
     82 HBC2       72.1039   56.8544   44.0269 dc         1 CLA      0.016300
     83 HBC1       70.4197   56.5984   43.5913 dc         1 CLA      0.016300
     84 HBB2       79.3723   63.4296   44.8422 da         1 CLA      0.183000
     85 HBB1       80.1789   62.3112   43.5144 da         1 CLA      0.183000
     86 HBA2       79.0558   58.9380   32.6743 dc         1 CLA      0.029400
     87 HBA1       80.1056   59.1123   34.0828 dc         1 CLA      0.029400
     88 HAC2       71.1048   58.9688   44.2575 dc         1 CLA      0.029300
     89 HAC1       70.3623   58.7825   42.5704 dc         1 CLA      0.029300
     90 HAA2       77.3919   57.8958   34.1291 dc         1 CLA      0.028700
     91 HAA1       77.6436   59.5397   34.5012 dc         1 CLA      0.028700
     92 H203       83.6299   63.6395   47.9018 dc         1 CLA      0.065600
     93 H202       83.7402   64.8117   46.6334 dc         1 CLA      0.065600
     94 H201       82.2812   64.8301   47.7198 dc         1 CLA      0.065600
     95 H193       81.5709   61.8547   47.9104 dc         1 CLA      0.065600
     96 H192       80.4875   63.2101   47.4381 dc         1 CLA      0.065600
     97 H191       80.7503   61.8821   46.3412 dc         1 CLA      0.065600
     98 H172       83.9933   61.6064   46.4924 dc         1 CLA      0.027600
     99 H171       84.1635   62.9173   45.3817 dc         1 CLA      0.027600
    100 H162       82.5901   61.9505   43.8284 dc         1 CLA      0.002900
    101 H161       82.4849   60.6268   45.0816 dc         1 CLA      0.002900
    102 H152       85.0169   60.2274   44.7053 dc         1 CLA      0.029100
    103 H151       85.0342   61.5463   43.5799 dc         1 CLA      0.029100
    104 H143       82.7008   58.6201   43.9174 dc         1 CLA      0.063600
    105 H142       83.2414   57.7569   42.5304 dc         1 CLA      0.063600
    106 H141       84.2425   58.0368   44.0430 dc         1 CLA      0.063600
    107 H122       83.9406   61.3680   41.3351 dc         1 CLA      0.032500
    108 H121       82.4962   60.5576   42.0706 dc         1 CLA      0.032500
    109 H112       82.6544   60.0938   39.6336 dc         1 CLA      0.006600
    110 H111       82.8119   58.6710   40.5737 dc         1 CLA      0.006600
    111 H102       85.1066   58.8818   40.4024 dc         1 CLA      0.024100
    112 H101       84.9880   60.3105   39.2767 dc         1 CLA      0.024100
    113 HHD        71.4389   58.1583   40.2357 da         1 CLA      0.174300
    114 HHC        75.7755   61.6899   43.3178 da         1 CLA      0.136800
    115 HHB        79.9512   60.9016   38.5330 da         1 CLA      0.138300
    116 HBD        75.5967   56.7440   34.6817 dc         1 CLA      0.107700
    117 HAB        77.3232   63.4157   43.5350 da         1 CLA      0.155200
    118 H93        86.2207   57.4361   37.1061 dc         1 CLA      0.069500
    119 H92        86.8604   58.7121   37.9629 dc         1 CLA      0.069500
    120 H91        86.6293   57.3303   38.8490 dc         1 CLA      0.069500
    121 H8         84.3405   58.9506   37.5825 dc         1 CLA      0.029300
    122 H72        82.6979   57.3146   38.7599 dc         1 CLA      0.044400
    123 H71        84.1049   56.5176   39.4252 dc         1 CLA      0.044400
    124 H62        84.7289   55.7637   37.0402 dc         1 CLA      0.015600
    125 H61        83.2590   56.7448   36.3656 dc         1 CLA      0.015600
    126 H52        81.7384   55.3878   37.9898 dc         1 CLA      0.033200
    127 H51        83.1102   54.2866   38.2894 dc         1 CLA      0.033200
    128 H43        82.0922   51.9521   35.7291 dc         1 CLA      0.037000
    129 H42        83.6818   52.5753   36.0010 dc         1 CLA      0.037000
    130 H41        82.4928   52.2017   37.4376 dc         1 CLA      0.037000
    131 H3A        79.5091   59.9173   36.1093 dc         1 CLA      0.041100
    132 H2A        78.6466   57.1258   36.0073 dc         1 CLA      0.083100
    133 H2         80.2062   54.2797   35.8825 da         1 CLA      0.180900
    134 H18        81.9198   63.7673   45.5897 dc         1 CLA     -0.003900
    135 H13        85.2596   59.5448   42.3808 dc         1 CLA      0.019700
    136 H12        80.8280   54.6010   33.5716 dc         1 CLA      0.120400
    137 H11        82.5228   55.4672   34.0238 dc         1 CLA      0.120400
    138 C1         67.5155   61.6464   49.9383 Z1         2 LUT      0.509236
    139 C2         67.2269   62.4547   51.2961 Z2         2 LUT     -0.434695
    140 C3         65.9269   63.1321   51.2896 Z3         2 LUT      0.437453
    141 O3         65.8545   63.7816   52.5350 S1         2 LUT     -0.547129
    142 C4         65.7882   64.0587   50.1042 Z4         2 LUT     -0.468603
    143 C5         66.5152   63.6270   48.8356 Z5         2 LUT      0.279246
    144 C6         67.3697   62.6025   48.7549 Z6         2 LUT     -0.305473
    145 C7         67.8781   62.1632   47.4251 Z7         2 LUT      0.069402
    146 C8         68.6090   62.8616   46.5248 Z8         2 LUT     -0.191631
    147 C9         69.2278   62.4331   45.2756 Z9         2 LUT      0.196698
    148 C10        70.0854   63.2778   44.6680 Y1         2 LUT     -0.208611
    149 C11        70.8705   62.9857   43.4669 Y2         2 LUT      0.030784
    150 C12        71.8738   63.8008   43.1000 Y3         2 LUT     -0.220316
    151 C13        72.8656   63.6857   41.9763 Y4         2 LUT      0.215937
    152 C14        73.9116   64.5628   41.9654 Y5         2 LUT     -0.185793
    153 C15        75.1169   64.6033   41.1560 Y6         2 LUT     -0.057835
    154 C16        66.6059   60.4995   49.7506 Y7         2 LUT     -0.405615
    155 C17        68.9260   60.9112   49.8919 Y7         2 LUT     -0.405615
    156 C18        65.9762   64.4475   47.7703 Y9         2 LUT     -0.369639
    157 C19        68.8854   61.0437   44.7352 W1         2 LUT     -0.333362
    158 C20        72.5531   62.6899   40.8255 W2         2 LUT     -0.323439
    159 C21        87.2316   66.6588   36.1372 Z1         2 LUT      0.406104
    160 C22        87.9158   66.0400   34.8305 Z2         2 LUT     -0.404965
    161 C23        87.9410   66.9399   33.5413 Z3         2 LUT      0.391255
    162 O23        88.4554   66.2016   32.3644 S1         2 LUT     -0.528210
    163 C24        86.6152   67.6886   33.3690 W6         2 LUT     -0.258361
    164 C25        85.7137   67.9028   34.3525 Z5         2 LUT      0.133546
    165 C26        85.7797   67.1401   35.6889 W8         2 LUT     -0.147008
    166 C27        84.9294   67.6376   36.8635 Z7         2 LUT      0.023843
    167 C28        83.7329   67.1664   37.2045 Z8         2 LUT     -0.216987
    168 C29        82.9848   67.4119   38.4224 Z9         2 LUT      0.206524
    169 C30        81.8577   66.6311   38.6092 Y1         2 LUT     -0.215556
    170 C31        80.9511   66.6630   39.7990 Y2         2 LUT      0.025142
    171 C32        79.6749   66.1668   39.8389 Y3         2 LUT     -0.212209
    172 C33        78.6537   66.1953   40.8708 Y4         2 LUT      0.240937
    173 C34        77.3941   65.6127   40.6783 Y5         2 LUT     -0.218862
    174 C35        76.1939   65.4568   41.4663 Y6         2 LUT     -0.023547
    175 C36        88.0703   67.9058   36.5786 Y7         2 LUT     -0.393485
    176 C37        87.2048   65.5773   37.2738 Y7         2 LUT     -0.393485
    177 C38        84.3932   68.5001   33.9752 Y9         2 LUT     -0.387526
    178 C39        83.4445   68.5020   39.3010 W1         2 LUT     -0.322618
    179 C40        79.0439   66.9623   42.0899 W2         2 LUT     -0.358472
    180 H403       78.1598   67.1753   42.7911 R7         2 LUT      0.097720
    181 H402       79.6661   66.3007   42.6342 R7         2 LUT      0.097720
    182 H401       79.5379   67.8651   41.9514 R7         2 LUT      0.097720
    183 H393       83.8293   69.3630   38.7599 R4         2 LUT      0.082505
    184 H392       82.7480   69.0492   39.9254 R4         2 LUT      0.082505
    185 H391       84.2515   68.0753   39.9903 R4         2 LUT      0.082505
    186 H383       84.4656   68.9713   32.9942 R1         2 LUT      0.104030
    187 H382       83.7269   67.7379   33.6711 R1         2 LUT      0.104030
    188 H381       84.1310   69.2898   34.6774 R1         2 LUT      0.104030
    189 H373       88.2216   65.3658   37.4603 T4         2 LUT      0.089537
    190 H372       86.7131   65.8060   38.2519 T4         2 LUT      0.089537
    191 H371       86.7289   64.7030   36.8079 T4         2 LUT      0.089537
    192 H363       88.2616   68.6166   35.7701 T4         2 LUT      0.089537
    193 H362       87.7292   68.5413   37.4632 T4         2 LUT      0.089537
    194 H361       89.0697   67.6310   36.8689 T4         2 LUT      0.089537
    195 H222       88.9869   65.7893   35.0761 U2         2 LUT      0.127376
    196 H221       87.4016   65.0987   34.5258 U2         2 LUT      0.127376
    197 H203       72.1071   63.1777   39.9029 R7         2 LUT      0.087068
    198 H202       73.3832   62.2515   40.3644 R7         2 LUT      0.087068
    199 H201       71.8139   61.9740   41.1465 R7         2 LUT      0.087068
    200 H193       69.6475   60.3988   45.0307 R4         2 LUT      0.089716
    201 H192       68.0423   60.6534   45.1440 R4         2 LUT      0.089716
    202 H191       68.5717   60.9317   43.6758 R4         2 LUT      0.089716
    203 H183       64.9395   64.7564   47.9104 R1         2 LUT      0.094572
    204 H182       66.5911   65.3133   47.6254 R1         2 LUT      0.094572
    205 H181       66.0514   63.9308   46.7548 R1         2 LUT      0.094572
    206 H173       69.0671   60.1964   50.7278 T4         2 LUT      0.093752
    207 H172       69.1710   60.3510   48.9931 T4         2 LUT      0.093752
    208 H171       69.7603   61.6567   50.1136 T4         2 LUT      0.093752
    209 H163       66.9432   59.8604   48.9993 T4         2 LUT      0.093752
    210 H162       66.3785   59.9672   50.7057 T4         2 LUT      0.093752
    211 H161       65.6876   60.9922   49.3860 T4         2 LUT      0.093752
    212 HO3        65.3311   63.3603   53.1772 Q1         2 LUT      0.300121
    213 H8         68.7815   63.8722   46.7523 U7         2 LUT      0.080784
    214 H7         67.6886   61.1060   47.1068 U6         2 LUT      0.042190
    215 H42        64.6853   64.2317   49.9259 U5         2 LUT      0.145166
    216 H41        66.1574   65.0690   50.3458 U5         2 LUT      0.145166
    217 H35        76.0648   66.0004   42.3671 T3         2 LUT      0.077919
    218 H34        77.2455   65.2102   39.7138 T2         2 LUT      0.073626
    219 H32        79.2533   65.8018   38.8931 T1         2 LUT      0.092510
    220 H31        81.2624   67.1384   40.6751 U9         2 LUT      0.070048
    221 H30        81.4998   65.9255   37.8544 U8         2 LUT      0.085442
    222 H3         65.1369   62.3247   51.3200 U3         2 LUT     -0.031596
    223 H28        83.3193   66.3993   36.6024 U7         2 LUT      0.084728
    224 H27        85.5423   68.4205   37.3041 U6         2 LUT      0.087291
    225 H26        85.2287   66.1664   35.3987 Q6         2 LUT      0.075325
    226 H24        86.5615   68.1666   32.4079 Q5         2 LUT      0.094482
    227 H23        88.5295   67.6575   33.9629 U3         2 LUT     -0.024869
    228 H22        67.2271   61.6703   52.1331 U2         2 LUT      0.127376
    229 H21        68.0431   63.1887   51.5017 U2         2 LUT      0.127376
    230 H15        75.3800   63.9684   40.3707 T3         2 LUT      0.093200
    231 H14        73.8537   65.2148   42.8439 T2         2 LUT      0.068865
    232 H12        72.0842   64.6040   43.7985 T1         2 LUT      0.095507
    233 H11        70.6714   62.1087   42.9173 U9         2 LUT      0.068930
    234 H10        70.1737   64.2709   45.0278 U8         2 LUT      0.083911
    235 H1         87.8166   65.7477   31.8524 Q1         2 LUT      0.297311
@<TRIPOS>BOND
    1     6     1 1
    2     7     2 1
    3     8     3 1
    4     9     4 1
    5    11     4 1
    6    12     6 1
    7    13     9 1
    8    16     9 1
    9    25     5 1
   10    25    16 1
   11    26    10 1
   12    26    17 1
   13    27    18 1
   14    28    14 1
   15    28    19 1
   16    29    12 1
   17    30    13 1
   18    31    24 1
   19    32     1 1
   20    32    25 1
   21    33    21 1
   22    33    26 1
   23    34    22 1
   24    34    27 1
   25    35    23 1
   26    35    28 1
   27    36    12 1
   28    36    24 1
   29    37    13 1
   30    37    15 1
   31    38    31 1
   32    39    20 1
   33    39    32 1
   34    40     2 1
   35    40    33 1
   36    41     3 1
   37    41    34 1
   38    42     4 1
   39    42    35 1
   40    43    38 1
   41    44     5 1
   42    44    17 1
   43    44    39 1
   44    45    10 1
   45    45    18 1
   46    45    40 1
   47    46    19 1
   48    46    41 1
   49    47    14 1
   50    47    16 1
   51    47    42 1
   52    48    38 1
   53    49    48 1
   54    50    49 1
   55    51    50 1
   56    52    51 1
   57    53    51 1
   58    54    53 1
   59    55    54 1
   60    56    55 1
   61    57    56 1
   62    58    56 1
   63    59    58 1
   64    60    59 1
   65    61    60 1
   66    62    61 1
   67    63    61 1
   68    64    27 1
   69    64    46 1
   70    65     5 1
   71    65    10 1
   72    65    64 1
   73    65    14 1
   74    66    23 1
   75    67    23 1
   76    68    23 1
   77    69    22 1
   78    70    22 1
   79    71    22 1
   80    72    21 1
   81    73    21 1
   82    74    21 1
   83    75    20 1
   84    76    20 1
   85    77    20 1
   86    78    15 1
   87    79    15 1
   88    80    15 1
   89    81     8 1
   90    82     8 1
   91    83     8 1
   92    84     7 1
   93    85     7 1
   94    86     6 1
   95    87     6 1
   96    88     3 1
   97    89     3 1
   98    90     1 1
   99    91     1 1
  100    92    63 1
  101    93    63 1
  102    94    63 1
  103    95    62 1
  104    96    62 1
  105    97    62 1
  106    98    60 1
  107    99    60 1
  108   100    59 1
  109   101    59 1
  110   102    58 1
  111   103    58 1
  112   104    57 1
  113   105    57 1
  114   106    57 1
  115   107    55 1
  116   108    55 1
  117   109    54 1
  118   110    54 1
  119   111    53 1
  120   112    53 1
  121   113    19 1
  122   114    18 1
  123   115    17 1
  124   116     9 1
  125   117     2 1
  126   118    52 1
  127   119    52 1
  128   120    52 1
  129   121    51 1
  130   122    50 1
  131   123    50 1
  132   124    49 1
  133   125    49 1
  134   126    48 1
  135   127    48 1
  136   128    43 1
  137   129    43 1
  138   130    43 1
  139   131    39 1
  140   132    32 1
  141   133    31 1
  142   134    61 1
  143   135    56 1
  144   136    24 1
  145   137    24 1
  146   139   138 1
  147   140   139 1
  148   141   140 1
  149   142   140 1
  150   143   142 1
  151   144   138 1
  152   144   143 1
  153   145   144 1
  154   146   145 1
  155   147   146 1
  156   148   147 1
  157   149   148 1
  158   150   149 1
  159   151   150 1
  160   152   151 1
  161   153   152 1
  162   154   138 1
  163   155   138 1
  164   156   143 1
  165   157   147 1
  166   158   151 1
  167   160   159 1
  168   161   160 1
  169   162   161 1
  170   163   161 1
  171   164   163 1
  172   165   159 1
  173   165   164 1
  174   166   165 1
  175   167   166 1
  176   168   167 1
  177   169   168 1
  178   170   169 1
  179   171   170 1
  180   172   171 1
  181   173   172 1
  182   174   153 1
  183   174   173 1
  184   175   159 1
  185   176   159 1
  186   177   164 1
  187   178   168 1
  188   179   172 1
  189   180   179 1
  190   181   179 1
  191   182   179 1
  192   183   178 1
  193   184   178 1
  194   185   178 1
  195   186   177 1
  196   187   177 1
  197   188   177 1
  198   189   176 1
  199   190   176 1
  200   191   176 1
  201   192   175 1
  202   193   175 1
  203   194   175 1
  204   195   160 1
  205   196   160 1
  206   197   158 1
  207   198   158 1
  208   199   158 1
  209   200   157 1
  210   201   157 1
  211   202   157 1
  212   203   156 1
  213   204   156 1
  214   205   156 1
  215   206   155 1
  216   207   155 1
  217   208   155 1
  218   209   154 1
  219   210   154 1
  220   211   154 1
  221   212   141 1
  222   213   146 1
  223   214   145 1
  224   215   142 1
  225   216   142 1
  226   217   174 1
  227   218   173 1
  228   219   171 1
  229   220   170 1
  230   221   169 1
  231   222   140 1
  232   223   167 1
  233   224   166 1
  234   225   165 1
  235   226   163 1
  236   227   161 1
  237   228   139 1
  238   229   139 1
  239   230   153 1
  240   231   152 1
  241   232   150 1
  242   233   149 1
  243   234   148 1
  244   235   162 1
  245   65    153 1
  246   65    174 1
@<TRIPOS>SUBSTRUCTURE
      1 CLA               1 ****               0 ****  **** 
      2 LUT             138 ****               0 ****  **** 
