@<TRIPOS>MOLECULE
Cpptraj generated mol2 file.
  235   246     2     0     0
SMALL
USER_CHARGES


@<TRIPOS>ATOM
      1 CAA        79.5030   58.1408   35.0804 a2         1 CLA     -0.055900
      2 CAB        79.6626   62.6649   43.5302 c8         1 CLA     -0.148500
      3 CAC        72.8708   58.7775   43.5093 a2         1 CLA     -0.012600
      4 CAD        75.2659   55.8026   36.5081 ck         1 CLA      0.398800
      5 NA         78.4829   58.8983   38.3780 ns         1 CLA     -0.225500
      6 CBA        80.7091   57.8744   34.1701 a2         1 CLA     -0.135000
      7 CBB        80.7790   62.4517   44.2984 c0         1 CLA     -0.395200
      8 CBC        73.0927   57.2710   43.7942 a3         1 CLA     -0.037700
      9 CBD        76.8171   56.1876   36.2124 a1         1 CLA     -0.053900
     10 NB         78.3591   60.7540   40.6027 nm         1 CLA     -0.295700
     11 OBD        74.6134   54.9783   35.8134 o2         1 CLA     -0.494600
     12 CGA        81.1443   56.4376   34.1022 c4         1 CLA      0.827000
     13 CGD        77.6673   54.9658   36.3861 c4         1 CLA      0.655300
     14 ND         75.6749   58.2213   38.9450 nm         1 CLA     -0.291600
     15 CED        78.3336   53.0732   37.5592 a3         1 CLA      0.005400
     16 CHA        77.1136   57.3448   37.1388 cs         1 CLA     -0.123800
     17 CHB        80.3132   60.2252   39.2032 aa         1 CLA     -0.291900
     18 CHC        77.1518   61.0972   42.6826 aa         1 CLA     -0.090400
     19 CHD        73.8068   58.4483   40.5209 aa         1 CLA     -0.052000
     20 CMA        81.7904   57.6896   38.1742 a3         1 CLA     -0.230700
     21 CMB        81.8670   62.2777   40.9794 a3         1 CLA     -0.180800
     22 CMC        75.0621   60.7984   44.7723 a3         1 CLA     -0.134000
     23 CMD        72.5235   56.3117   38.4979 a3         1 CLA     -0.141100
     24 C1         82.3264   54.6801   35.0763 a2         1 CLA      0.023000
     25 C1A        78.3588   57.9798   37.3905 ac         1 CLA     -0.015100
     26 C1B        79.6805   60.9198   40.2415 cr         1 CLA      0.054700
     27 C1C        75.9832   60.3760   42.3783 cn         1 CLA     -0.005600
     28 C1D        74.3750   57.8996   39.3650 ap         1 CLA     -0.047300
     29 O1A        80.6667   55.6675   33.3024 o2         1 CLA     -0.610800
     30 O1D        78.6365   54.7283   35.6851 o2         1 CLA     -0.558200
     31 C2         83.1492   54.3820   36.3769 c8         1 CLA     -0.325100
     32 C2A        79.6869   57.7097   36.5624 a1         1 CLA      0.098600
     33 C2B        80.3841   61.8085   41.1604 cb         1 CLA      0.088500
     34 C2C        74.9855   60.2070   43.3654 cb         1 CLA      0.053700
     35 C2D        73.8290   56.9276   38.4387 cb         1 CLA      0.058900
     36 O2A        81.9986   56.0973   35.0958 o1         1 CLA     -0.437200
     37 O2D        77.3067   54.1660   37.4324 o1         1 CLA     -0.357600
     38 C3         84.4807   54.1867   36.2470 c5         1 CLA      0.031200
     39 C3A        80.7507   58.5406   37.3942 a1         1 CLA      0.166800
     40 C3B        79.4678   62.0562   42.2039 cb         1 CLA      0.035000
     41 C3C        74.0749   59.4078   42.7800 cb         1 CLA     -0.089900
     42 C3D        74.9102   56.6370   37.6099 cb         1 CLA     -0.035900
     43 C4         85.0686   52.8023   35.9430 a3         1 CLA     -0.053300
     44 C4A        79.7630   59.2630   38.3553 ac         1 CLA      0.001800
     45 C4B        78.2553   61.3128   41.8832 cn         1 CLA     -0.020900
     46 C4C        74.5089   59.2758   41.4150 cr         1 CLA     -0.044400
     47 C4D        75.9915   57.4529   37.9170 c6         1 CLA     -0.046000
     48 C5         85.5478   55.3424   36.3858 a2         1 CLA     -0.070400
     49 C6         85.8923   55.7017   37.8745 a2         1 CLA      0.043900
     50 C7         86.8107   56.9186   37.9192 a2         1 CLA     -0.150000
     51 C8         87.7268   57.1950   39.1861 a1         1 CLA      0.064200
     52 C9         88.9429   56.3005   39.1480 a3         1 CLA     -0.259300
     53 C10        87.0478   56.9151   40.5692 a2         1 CLA     -0.071900
     54 C11        87.7858   57.6719   41.6988 a2         1 CLA      0.014500
     55 C12        87.4337   56.8223   43.0176 a2         1 CLA     -0.112100
     56 C13        87.8619   57.5012   44.3598 a1         1 CLA      0.089200
     57 C14        89.3971   57.6213   44.4261 a3         1 CLA     -0.239100
     58 C15        87.3833   56.8783   45.7220 a2         1 CLA     -0.102200
     59 C16        87.7165   57.3741   47.1937 a2         1 CLA      0.023900
     60 C17        87.6642   58.9021   47.3627 a2         1 CLA     -0.105700
     61 C18        86.3953   59.5676   46.9087 a1         1 CLA      0.206800
     62 C19        85.1808   58.9333   47.7571 a3         1 CLA     -0.280100
     63 C20        86.5029   61.0670   47.0572 a3         1 CLA     -0.280100
     64 NC         75.7023   59.7589   41.2200 nx         1 CLA     -0.309200
     65 MG         77.0489   59.5048   39.7219 mg         1 CLA      0.895000
     66 HMD3       72.5439   55.7327   39.4379 dc         1 CLA      0.064300
     67 HMD2       71.8130   57.1325   38.4232 dc         1 CLA      0.064300
     68 HMD1       72.4312   55.6629   37.6382 dc         1 CLA      0.064300
     69 HMC3       75.8570   60.4615   45.4022 dc         1 CLA      0.052100
     70 HMC2       75.0779   61.8976   44.7281 dc         1 CLA      0.052100
     71 HMC1       74.1581   60.5231   45.2961 dc         1 CLA      0.052100
     72 HMB3       82.1391   63.3415   41.1482 dc         1 CLA      0.063600
     73 HMB2       82.3701   61.7364   41.7874 dc         1 CLA      0.063600
     74 HMB1       82.3788   62.0066   40.0647 dc         1 CLA      0.063600
     75 HMA3       81.3033   56.8287   38.5793 dc         1 CLA      0.058300
     76 HMA2       82.5213   57.4499   37.4557 dc         1 CLA      0.058300
     77 HMA1       82.3169   58.3536   38.9272 dc         1 CLA      0.058300
     78 HED3       79.3798   53.4778   37.8379 dc         1 CLA      0.079300
     79 HED2       78.0052   52.4862   38.4649 dc         1 CLA      0.079300
     80 HED1       78.3743   52.5397   36.5965 dc         1 CLA      0.079300
     81 HBC3       73.6042   56.8078   42.9364 dc         1 CLA      0.016300
     82 HBC2       73.7059   57.0739   44.6872 dc         1 CLA      0.016300
     83 HBC1       72.2002   56.6994   43.9097 dc         1 CLA      0.016300
     84 HBB2       80.8976   62.8724   45.3446 da         1 CLA      0.183000
     85 HBB1       81.5784   61.9207   43.9703 da         1 CLA      0.183000
     86 HBA2       80.3696   58.3013   33.2262 dc         1 CLA      0.029400
     87 HBA1       81.4425   58.5100   34.5604 dc         1 CLA      0.029400
     88 HAC2       72.5521   59.2684   44.4025 dc         1 CLA      0.029300
     89 HAC1       72.0748   58.7497   42.7357 dc         1 CLA      0.029300
     90 HAA2       78.6418   57.5525   34.7340 dc         1 CLA      0.028700
     91 HAA1       79.1182   59.1611   34.9400 dc         1 CLA      0.028700
     92 H203       87.1236   61.4355   46.2666 dc         1 CLA      0.065600
     93 H202       85.5815   61.4987   46.8166 dc         1 CLA      0.065600
     94 H201       86.8381   61.4407   48.0209 dc         1 CLA      0.065600
     95 H193       85.1480   57.8735   47.6037 dc         1 CLA      0.065600
     96 H192       85.4994   59.1285   48.7882 dc         1 CLA      0.065600
     97 H191       84.2337   59.4231   47.5541 dc         1 CLA      0.065600
     98 H172       87.8186   59.1877   48.3943 dc         1 CLA      0.027600
     99 H171       88.5113   59.1149   46.6843 dc         1 CLA      0.027600
    100 H162       87.0504   56.9266   47.9262 dc         1 CLA      0.002900
    101 H161       88.7640   57.0477   47.4686 dc         1 CLA      0.002900
    102 H152       86.2809   57.0325   45.7359 dc         1 CLA      0.029100
    103 H151       87.6887   55.7685   45.7917 dc         1 CLA      0.029100
    104 H143       89.5486   58.1470   43.5275 dc         1 CLA      0.063600
    105 H142       89.8033   58.2582   45.2271 dc         1 CLA      0.063600
    106 H141       89.9500   56.6501   44.3759 dc         1 CLA      0.063600
    107 H122       86.3799   56.6831   42.9647 dc         1 CLA      0.032500
    108 H121       87.9799   55.8515   42.9718 dc         1 CLA      0.032500
    109 H112       88.8690   57.6295   41.5906 dc         1 CLA      0.006600
    110 H111       87.3748   58.6329   41.7433 dc         1 CLA      0.006600
    111 H102       86.0063   57.2643   40.5446 dc         1 CLA      0.024100
    112 H101       87.0162   55.8802   40.8020 dc         1 CLA      0.024100
    113 HHD        72.8438   58.0560   40.7466 da         1 CLA      0.174300
    114 HHC        77.2808   61.6756   43.6559 da         1 CLA      0.136800
    115 HHB        81.3983   60.3144   38.9941 da         1 CLA      0.138300
    116 HBD        76.9030   56.4452   35.1539 dc         1 CLA      0.107700
    117 HAB        78.9540   63.3830   43.9135 da         1 CLA      0.155200
    118 H93        89.5927   56.3206   40.0504 dc         1 CLA      0.069500
    119 H92        88.6642   55.2363   38.9700 dc         1 CLA      0.069500
    120 H91        89.5823   56.4904   38.2705 dc         1 CLA      0.069500
    121 H8         87.9893   58.2737   39.1850 dc         1 CLA      0.029300
    122 H72        87.3593   56.9570   37.0121 dc         1 CLA      0.044400
    123 H71        86.1132   57.8365   37.8281 dc         1 CLA      0.044400
    124 H62        84.9986   55.8745   38.3966 dc         1 CLA      0.015600
    125 H61        86.4454   54.8859   38.3729 dc         1 CLA      0.015600
    126 H52        86.4123   55.0694   35.8006 dc         1 CLA      0.033200
    127 H51        85.1716   56.2496   35.9213 dc         1 CLA      0.033200
    128 H43        84.2229   52.1441   35.8173 dc         1 CLA      0.037000
    129 H42        85.6986   52.6873   35.1004 dc         1 CLA      0.037000
    130 H41        85.6167   52.4652   36.7715 dc         1 CLA      0.037000
    131 H3A        81.2465   59.2666   36.7884 dc         1 CLA      0.041100
    132 H2A        79.8637   56.6351   36.6188 dc         1 CLA      0.083100
    133 H2         82.7372   53.9869   37.3404 da         1 CLA      0.180900
    134 H18        86.2600   59.4096   45.8901 dc         1 CLA     -0.003900
    135 H13        87.4724   58.5043   44.2973 dc         1 CLA      0.019700
    136 H12        81.3909   54.1491   35.1449 dc         1 CLA      0.120400
    137 H11        82.9171   54.3950   34.2428 dc         1 CLA      0.120400
    138 C1         69.6507   62.2248   49.0916 Z1         2 LUT      0.509236
    139 C2         68.3455   62.0559   49.9396 Z2         2 LUT     -0.434695
    140 C3         67.6477   63.3051   50.4187 Z3         2 LUT      0.437453
    141 O3         68.1893   63.6919   51.6644 S1         2 LUT     -0.547129
    142 C4         67.6736   64.4265   49.3857 Z4         2 LUT     -0.468603
    143 C5         68.3913   64.1181   48.0289 Z5         2 LUT      0.279246
    144 C6         69.3482   63.1522   47.9056 Z6         2 LUT     -0.305473
    145 C7         69.7564   62.7630   46.5382 Z7         2 LUT      0.069402
    146 C8         71.0016   63.0429   46.1238 Z8         2 LUT     -0.191631
    147 C9         71.5869   62.8583   44.7628 Z9         2 LUT      0.196698
    148 C10        72.7033   63.5870   44.4074 Y1         2 LUT     -0.208611
    149 C11        73.5108   63.5353   43.1861 Y2         2 LUT      0.030784
    150 C12        74.6798   64.2683   43.1785 Y3         2 LUT     -0.220316
    151 C13        75.7088   64.2885   42.1244 Y4         2 LUT      0.215937
    152 C14        76.9372   64.9675   42.2962 Y5         2 LUT     -0.185793
    153 C15        78.0822   64.9621   41.3821 Y6         2 LUT     -0.057835
    154 C16        70.0359   60.7914   48.6451 Y7         2 LUT     -0.405615
    155 C17        70.6938   62.9222   50.0104 Y7         2 LUT     -0.405615
    156 C18        67.8453   64.9324   46.9389 Y9         2 LUT     -0.369639
    157 C19        70.8634   61.9311   43.8114 W1         2 LUT     -0.333362
    158 C20        75.5208   63.5494   40.8234 W2         2 LUT     -0.323439
    159 C21        88.6817   65.4635   34.9104 Z1         2 LUT      0.406104
    160 C22        89.5149   64.8075   33.7956 Z2         2 LUT     -0.404965
    161 C23        90.0097   65.9143   32.7792 Z3         2 LUT      0.391255
    162 O23        90.7523   65.2863   31.7685 S1         2 LUT     -0.528210
    163 C24        88.7949   66.7971   32.3559 W6         2 LUT     -0.258361
    164 C25        87.6424   66.8778   33.0309 Z5         2 LUT      0.133546
    165 C26        87.3298   66.1195   34.3301 W8         2 LUT     -0.147008
    166 C27        86.7292   66.9832   35.5010 Z7         2 LUT      0.023843
    167 C28        85.9265   66.4495   36.4531 Z8         2 LUT     -0.216987
    168 C29        85.4263   67.0707   37.6340 Z9         2 LUT      0.206524
    169 C30        84.3367   66.4927   38.2868 Y1         2 LUT     -0.215556
    170 C31        83.5708   66.9056   39.5056 Y2         2 LUT      0.025142
    171 C32        82.4543   66.1998   39.7800 Y3         2 LUT     -0.212209
    172 C33        81.4641   66.3305   40.9459 Y4         2 LUT      0.240937
    173 C34        80.3750   65.4674   40.8787 Y5         2 LUT     -0.218862
    174 C35        79.2704   65.4666   41.7814 Y6         2 LUT     -0.023547
    175 C36        89.6691   66.5402   35.5402 Y7         2 LUT     -0.393485
    176 C37        88.3623   64.4062   35.9795 Y7         2 LUT     -0.393485
    177 C38        86.4365   67.6847   32.5967 Y9         2 LUT     -0.387526
    178 C39        85.9485   68.3964   38.0833 W1         2 LUT     -0.322618
    179 C40        81.8972   66.9440   42.2648 W2         2 LUT     -0.358472
    180 H403       82.8003   67.4944   42.1958 R7         2 LUT      0.097720
    181 H402       81.2329   67.7726   42.5865 R7         2 LUT      0.097720
    182 H401       81.8361   66.1912   43.1044 R7         2 LUT      0.097720
    183 H393       86.9698   68.4103   37.8375 R4         2 LUT      0.082505
    184 H392       85.5059   69.1564   37.4085 R4         2 LUT      0.082505
    185 H391       85.7709   68.6387   39.1507 R4         2 LUT      0.082505
    186 H383       85.9774   68.3420   33.3882 R1         2 LUT      0.104030
    187 H382       86.8008   68.4469   31.8135 R1         2 LUT      0.104030
    188 H381       85.5888   67.2424   32.1369 R1         2 LUT      0.104030
    189 H373       88.1531   64.8964   36.9138 T4         2 LUT      0.089537
    190 H372       87.5448   63.6482   35.7899 T4         2 LUT      0.089537
    191 H371       89.2850   63.8258   36.2236 T4         2 LUT      0.089537
    192 H363       89.0953   66.9409   36.3753 T4         2 LUT      0.089537
    193 H362       90.5731   65.9601   35.9252 T4         2 LUT      0.089537
    194 H361       89.8676   67.3261   34.8892 T4         2 LUT      0.089537
    195 H222       90.3235   64.2855   34.2995 U2         2 LUT      0.127376
    196 H221       88.9447   64.0538   33.2987 U2         2 LUT      0.127376
    197 H203       74.7390   62.7790   40.9685 R7         2 LUT      0.087068
    198 H202       75.4187   64.2586   39.9745 R7         2 LUT      0.087068
    199 H201       76.3815   62.9457   40.5755 R7         2 LUT      0.087068
    200 H193       71.4426   61.7667   42.9148 R4         2 LUT      0.089716
    201 H192       70.6248   60.9381   44.3348 R4         2 LUT      0.089716
    202 H191       69.9447   62.4335   43.5160 R4         2 LUT      0.089716
    203 H183       66.8287   65.2281   47.1080 R1         2 LUT      0.094572
    204 H182       68.4250   65.8271   46.7163 R1         2 LUT      0.094572
    205 H181       67.8534   64.4428   45.9730 R1         2 LUT      0.094572
    206 H173       70.6164   62.6190   51.0391 T4         2 LUT      0.093752
    207 H172       71.7200   62.5845   49.7394 T4         2 LUT      0.093752
    208 H171       70.5245   63.9636   50.0518 T4         2 LUT      0.093752
    209 H163       71.0989   60.6395   48.3091 T4         2 LUT      0.093752
    210 H162       69.9473   60.1886   49.5969 T4         2 LUT      0.093752
    211 H161       69.3258   60.2697   48.0255 T4         2 LUT      0.093752
    212 HO3        67.5815   64.0547   52.2913 Q1         2 LUT      0.300121
    213 H8         71.6521   63.5587   46.7907 U7         2 LUT      0.080784
    214 H7         69.0234   62.2356   45.9794 U6         2 LUT      0.042190
    215 H42        66.6076   64.7691   49.2553 U5         2 LUT      0.145166
    216 H41        68.0170   65.3780   49.7687 U5         2 LUT      0.145166
    217 H35        79.3341   66.0240   42.7881 T3         2 LUT      0.077919
    218 H34        80.3070   64.9566   39.9557 T2         2 LUT      0.073626
    219 H32        82.2020   65.4948   39.0553 T1         2 LUT      0.092510
    220 H31        83.8259   67.7784   40.0552 U9         2 LUT      0.070048
    221 H30        84.0221   65.5094   37.8100 U8         2 LUT      0.085442
    222 H3         66.6359   62.9778   50.6837 U3         2 LUT     -0.031596
    223 H28        85.4623   65.4996   36.1811 U7         2 LUT      0.084728
    224 H27        87.1743   68.0204   35.6023 U6         2 LUT      0.087291
    225 H26        86.5000   65.4624   34.1420 Q6         2 LUT      0.075325
    226 H24        88.8418   67.3740   31.3715 Q5         2 LUT      0.094482
    227 H23        90.8184   66.5023   33.3485 U3         2 LUT     -0.024869
    228 H22        67.6601   61.5461   49.2853 U2         2 LUT      0.127376
    229 H21        68.4895   61.3252   50.7259 U2         2 LUT      0.127376
    230 H15        78.1416   64.3679   40.4458 T3         2 LUT      0.093200
    231 H14        77.1490   65.5782   43.1516 T2         2 LUT      0.068865
    232 H12        75.0959   64.8012   44.0396 T1         2 LUT      0.095507
    233 H11        73.1588   62.9183   42.4085 U9         2 LUT      0.068930
    234 H10        73.0212   64.2663   45.1416 U8         2 LUT      0.083911
    235 H1         90.1961   64.9232   31.0681 Q1         2 LUT      0.297311
@<TRIPOS>BOND
    1     6     1 1
    2     7     2 1
    3     8     3 1
    4     9     4 1
    5    11     4 1
    6    12     6 1
    7    13     9 1
    8    16     9 1
    9    25     5 1
   10    25    16 1
   11    26    10 1
   12    26    17 1
   13    27    18 1
   14    28    14 1
   15    28    19 1
   16    29    12 1
   17    30    13 1
   18    31    24 1
   19    32     1 1
   20    32    25 1
   21    33    21 1
   22    33    26 1
   23    34    22 1
   24    34    27 1
   25    35    23 1
   26    35    28 1
   27    36    12 1
   28    36    24 1
   29    37    13 1
   30    37    15 1
   31    38    31 1
   32    39    20 1
   33    39    32 1
   34    40     2 1
   35    40    33 1
   36    41     3 1
   37    41    34 1
   38    42     4 1
   39    42    35 1
   40    43    38 1
   41    44     5 1
   42    44    17 1
   43    44    39 1
   44    45    10 1
   45    45    18 1
   46    45    40 1
   47    46    19 1
   48    46    41 1
   49    47    14 1
   50    47    16 1
   51    47    42 1
   52    48    38 1
   53    49    48 1
   54    50    49 1
   55    51    50 1
   56    52    51 1
   57    53    51 1
   58    54    53 1
   59    55    54 1
   60    56    55 1
   61    57    56 1
   62    58    56 1
   63    59    58 1
   64    60    59 1
   65    61    60 1
   66    62    61 1
   67    63    61 1
   68    64    27 1
   69    64    46 1
   70    65     5 1
   71    65    10 1
   72    65    64 1
   73    65    14 1
   74    66    23 1
   75    67    23 1
   76    68    23 1
   77    69    22 1
   78    70    22 1
   79    71    22 1
   80    72    21 1
   81    73    21 1
   82    74    21 1
   83    75    20 1
   84    76    20 1
   85    77    20 1
   86    78    15 1
   87    79    15 1
   88    80    15 1
   89    81     8 1
   90    82     8 1
   91    83     8 1
   92    84     7 1
   93    85     7 1
   94    86     6 1
   95    87     6 1
   96    88     3 1
   97    89     3 1
   98    90     1 1
   99    91     1 1
  100    92    63 1
  101    93    63 1
  102    94    63 1
  103    95    62 1
  104    96    62 1
  105    97    62 1
  106    98    60 1
  107    99    60 1
  108   100    59 1
  109   101    59 1
  110   102    58 1
  111   103    58 1
  112   104    57 1
  113   105    57 1
  114   106    57 1
  115   107    55 1
  116   108    55 1
  117   109    54 1
  118   110    54 1
  119   111    53 1
  120   112    53 1
  121   113    19 1
  122   114    18 1
  123   115    17 1
  124   116     9 1
  125   117     2 1
  126   118    52 1
  127   119    52 1
  128   120    52 1
  129   121    51 1
  130   122    50 1
  131   123    50 1
  132   124    49 1
  133   125    49 1
  134   126    48 1
  135   127    48 1
  136   128    43 1
  137   129    43 1
  138   130    43 1
  139   131    39 1
  140   132    32 1
  141   133    31 1
  142   134    61 1
  143   135    56 1
  144   136    24 1
  145   137    24 1
  146   139   138 1
  147   140   139 1
  148   141   140 1
  149   142   140 1
  150   143   142 1
  151   144   138 1
  152   144   143 1
  153   145   144 1
  154   146   145 1
  155   147   146 1
  156   148   147 1
  157   149   148 1
  158   150   149 1
  159   151   150 1
  160   152   151 1
  161   153   152 1
  162   154   138 1
  163   155   138 1
  164   156   143 1
  165   157   147 1
  166   158   151 1
  167   160   159 1
  168   161   160 1
  169   162   161 1
  170   163   161 1
  171   164   163 1
  172   165   159 1
  173   165   164 1
  174   166   165 1
  175   167   166 1
  176   168   167 1
  177   169   168 1
  178   170   169 1
  179   171   170 1
  180   172   171 1
  181   173   172 1
  182   174   153 1
  183   174   173 1
  184   175   159 1
  185   176   159 1
  186   177   164 1
  187   178   168 1
  188   179   172 1
  189   180   179 1
  190   181   179 1
  191   182   179 1
  192   183   178 1
  193   184   178 1
  194   185   178 1
  195   186   177 1
  196   187   177 1
  197   188   177 1
  198   189   176 1
  199   190   176 1
  200   191   176 1
  201   192   175 1
  202   193   175 1
  203   194   175 1
  204   195   160 1
  205   196   160 1
  206   197   158 1
  207   198   158 1
  208   199   158 1
  209   200   157 1
  210   201   157 1
  211   202   157 1
  212   203   156 1
  213   204   156 1
  214   205   156 1
  215   206   155 1
  216   207   155 1
  217   208   155 1
  218   209   154 1
  219   210   154 1
  220   211   154 1
  221   212   141 1
  222   213   146 1
  223   214   145 1
  224   215   142 1
  225   216   142 1
  226   217   174 1
  227   218   173 1
  228   219   171 1
  229   220   170 1
  230   221   169 1
  231   222   140 1
  232   223   167 1
  233   224   166 1
  234   225   165 1
  235   226   163 1
  236   227   161 1
  237   228   139 1
  238   229   139 1
  239   230   153 1
  240   231   152 1
  241   232   150 1
  242   233   149 1
  243   234   148 1
  244   235   162 1
  245   65    153 1
  246   65    174 1
@<TRIPOS>SUBSTRUCTURE
      1 CLA               1 ****               0 ****  **** 
      2 LUT             138 ****               0 ****  **** 
