@<TRIPOS>MOLECULE
Cpptraj generated mol2 file.
  235   246     2     0     0
SMALL
USER_CHARGES


@<TRIPOS>ATOM
      1 CAA        78.0385   58.4710   34.9356 a2         1 CLA     -0.055900
      2 CAB        77.9421   62.8629   43.4668 c8         1 CLA     -0.148500
      3 CAC        71.3671   58.4411   43.5291 a2         1 CLA     -0.012600
      4 CAD        73.9709   55.7779   36.3011 ck         1 CLA      0.398800
      5 NA         77.0807   58.8742   38.2811 ns         1 CLA     -0.225500
      6 CBA        79.3322   58.5239   34.1130 a2         1 CLA     -0.135000
      7 CBB        79.1215   62.9867   44.0718 c0         1 CLA     -0.395200
      8 CBC        71.6164   56.9448   43.7045 a3         1 CLA     -0.037700
      9 CBD        75.4348   56.1252   35.9991 a1         1 CLA     -0.053900
     10 NB         76.9122   60.6298   40.6698 nm         1 CLA     -0.295700
     11 OBD        73.2927   54.9515   35.7495 o2         1 CLA     -0.494600
     12 CGA        79.7966   57.1210   33.5199 c4         1 CLA      0.827000
     13 CGD        76.2273   54.8862   36.0753 c4         1 CLA      0.655300
     14 ND         74.3788   58.0725   38.9341 nm         1 CLA     -0.291600
     15 CED        76.7802   52.9226   37.2367 a3         1 CLA      0.005400
     16 CHA        75.7152   57.2714   37.0153 cs         1 CLA     -0.123800
     17 CHB        78.8418   60.3162   39.2063 aa         1 CLA     -0.291900
     18 CHC        75.6388   61.0478   42.7778 aa         1 CLA     -0.090400
     19 CHD        72.5687   58.0006   40.6284 aa         1 CLA     -0.052000
     20 CMA        80.3887   57.8838   37.8922 a3         1 CLA     -0.230700
     21 CMB        80.1599   62.6324   41.0123 a3         1 CLA     -0.180800
     22 CMC        73.3643   60.5195   45.0669 a3         1 CLA     -0.134000
     23 CMD        71.2575   55.9998   38.5168 a3         1 CLA     -0.141100
     24 C1         80.7787   55.0340   34.0861 a2         1 CLA      0.023000
     25 C1A        76.8739   57.9953   37.1906 ac         1 CLA     -0.015100
     26 C1B        78.2132   60.8975   40.3061 cr         1 CLA      0.054700
     27 C1C        74.4980   60.2283   42.5853 cn         1 CLA     -0.005600
     28 C1D        73.1086   57.5759   39.3644 ap         1 CLA     -0.047300
     29 O1A        79.6643   56.7524   32.3745 o2         1 CLA     -0.610800
     30 O1D        77.1733   54.6997   35.3806 o2         1 CLA     -0.558200
     31 C2         80.9997   54.1511   35.2691 c8         1 CLA     -0.325100
     32 C2A        78.1856   57.9565   36.3783 a1         1 CLA      0.098600
     33 C2B        78.7898   61.9730   41.1340 cb         1 CLA      0.088500
     34 C2C        73.4240   59.9519   43.6199 cb         1 CLA      0.053700
     35 C2D        72.5431   56.6959   38.4610 cb         1 CLA      0.058900
     36 O2A        80.2240   56.3675   34.5249 o1         1 CLA     -0.437200
     37 O2D        75.8737   54.0294   37.0867 o1         1 CLA     -0.357600
     38 C3         82.1713   53.9120   35.9325 c5         1 CLA      0.031200
     39 C3A        79.2891   58.7270   37.2441 a1         1 CLA      0.166800
     40 C3B        77.8711   62.1095   42.2015 cb         1 CLA      0.035000
     41 C3C        72.5985   59.0852   42.9702 cb         1 CLA     -0.089900
     42 C3D        73.5644   56.5324   37.5136 cb         1 CLA     -0.035900
     43 C4         83.1748   52.8430   35.5221 a3         1 CLA     -0.053300
     44 C4A        78.3611   59.4212   38.2961 ac         1 CLA      0.001800
     45 C4B        76.7451   61.2966   41.8570 cn         1 CLA     -0.020900
     46 C4C        73.1881   58.7848   41.6192 cr         1 CLA     -0.044400
     47 C4D        74.6067   57.3511   37.8496 c6         1 CLA     -0.046000
     48 C5         82.4982   54.7366   37.1563 a2         1 CLA     -0.070400
     49 C6         83.6743   55.6774   37.0631 a2         1 CLA      0.043900
     50 C7         83.9165   56.3740   38.3922 a2         1 CLA     -0.150000
     51 C8         84.6685   57.7437   38.4001 a1         1 CLA      0.064200
     52 C9         86.0871   57.5443   37.7910 a3         1 CLA     -0.259300
     53 C10        84.7357   58.4564   39.7468 a2         1 CLA     -0.071900
     54 C11        83.4625   58.9999   40.4459 a2         1 CLA      0.014500
     55 C12        83.8355   59.8888   41.6469 a2         1 CLA     -0.112100
     56 C13        84.4751   59.3236   42.9301 a1         1 CLA      0.089200
     57 C14        83.5949   58.1562   43.5172 a3         1 CLA     -0.239100
     58 C15        84.7728   60.3964   43.9418 a2         1 CLA     -0.102200
     59 C16        83.5480   60.9335   44.7239 a2         1 CLA      0.023900
     60 C17        83.9200   62.0906   45.6786 a2         1 CLA     -0.105700
     61 C18        82.7276   62.8180   46.2865 a1         1 CLA      0.206800
     62 C19        81.8529   61.8661   47.2289 a3         1 CLA     -0.280100
     63 C20        83.1557   64.0670   47.1053 a3         1 CLA     -0.280100
     64 NC         74.3500   59.4500   41.4477 nx         1 CLA     -0.309200
     65 MG         75.6335   59.3592   39.7065 mg         1 CLA      0.895000
     66 HMD3       70.8601   55.8950   39.5638 dc         1 CLA      0.064300
     67 HMD2       70.5127   56.6342   37.9487 dc         1 CLA      0.064300
     68 HMD1       71.2482   54.9731   38.1425 dc         1 CLA      0.064300
     69 HMC3       74.4392   60.5821   45.3528 dc         1 CLA      0.052100
     70 HMC2       72.8557   61.4177   45.1475 dc         1 CLA      0.052100
     71 HMC1       73.0231   59.7750   45.7137 dc         1 CLA      0.052100
     72 HMB3       80.8517   61.8627   41.3697 dc         1 CLA      0.063600
     73 HMB2       80.3745   63.0159   39.9888 dc         1 CLA      0.063600
     74 HMB1       80.2083   63.5919   41.5888 dc         1 CLA      0.063600
     75 HMA3       81.0551   58.4650   38.5464 dc         1 CLA      0.058300
     76 HMA2       79.8663   57.0418   38.3473 dc         1 CLA      0.058300
     77 HMA1       81.0991   57.5600   37.1214 dc         1 CLA      0.058300
     78 HED3       76.5307   52.3649   36.3650 dc         1 CLA      0.079300
     79 HED2       77.8444   53.1932   37.2744 dc         1 CLA      0.079300
     80 HED1       76.5956   52.2804   38.1278 dc         1 CLA      0.079300
     81 HBC3       70.8084   56.2566   43.7170 dc         1 CLA      0.016300
     82 HBC2       72.2415   56.4653   42.9366 dc         1 CLA      0.016300
     83 HBC1       71.9500   56.8694   44.7372 dc         1 CLA      0.016300
     84 HBB2       79.1866   63.4585   45.0431 da         1 CLA      0.183000
     85 HBB1       79.9641   62.4565   43.7189 da         1 CLA      0.183000
     86 HBA2       79.1964   59.1745   33.2387 dc         1 CLA      0.029400
     87 HBA1       80.1505   59.0552   34.6707 dc         1 CLA      0.029400
     88 HAC2       71.0497   58.9080   44.4224 dc         1 CLA      0.029300
     89 HAC1       70.5488   58.5022   42.8479 dc         1 CLA      0.029300
     90 HAA2       77.3430   58.0318   34.2616 dc         1 CLA      0.028700
     91 HAA1       77.7711   59.5637   34.9271 dc         1 CLA      0.028700
     92 H203       83.9756   63.7087   47.8187 dc         1 CLA      0.065600
     93 H202       83.4334   64.9149   46.4706 dc         1 CLA      0.065600
     94 H201       82.2800   64.4471   47.7690 dc         1 CLA      0.065600
     95 H193       82.4188   61.5557   48.1187 dc         1 CLA      0.065600
     96 H192       81.0435   62.4479   47.5614 dc         1 CLA      0.065600
     97 H191       81.4611   60.9622   46.7217 dc         1 CLA      0.065600
     98 H172       84.5430   61.7383   46.5108 dc         1 CLA      0.027600
     99 H171       84.4065   62.9141   45.2606 dc         1 CLA      0.027600
    100 H162       82.7659   61.2923   44.1208 dc         1 CLA      0.002900
    101 H161       83.1103   60.0766   45.2293 dc         1 CLA      0.002900
    102 H152       85.5975   60.1624   44.5793 dc         1 CLA      0.029100
    103 H151       85.1571   61.1470   43.2654 dc         1 CLA      0.029100
    104 H143       82.6447   58.4948   43.9409 dc         1 CLA      0.063600
    105 H142       83.4388   57.4270   42.7667 dc         1 CLA      0.063600
    106 H141       84.2627   57.7323   44.2160 dc         1 CLA      0.063600
    107 H122       84.5738   60.5891   41.3051 dc         1 CLA      0.032500
    108 H121       82.9193   60.3561   41.9622 dc         1 CLA      0.032500
    109 H112       82.9293   59.7010   39.7296 dc         1 CLA      0.006600
    110 H111       82.7841   58.1366   40.6973 dc         1 CLA      0.006600
    111 H102       85.1484   57.6878   40.4549 dc         1 CLA      0.024100
    112 H101       85.3807   59.3500   39.6872 dc         1 CLA      0.024100
    113 HHD        71.5862   57.6603   40.8098 da         1 CLA      0.174300
    114 HHC        75.7850   61.6377   43.6790 da         1 CLA      0.136800
    115 HHB        79.8936   60.5616   39.1827 da         1 CLA      0.138300
    116 HBD        75.5251   56.4907   34.9846 dc         1 CLA      0.107700
    117 HAB        77.1051   63.3025   43.8742 da         1 CLA      0.155200
    118 H93        86.2005   57.3811   36.7430 dc         1 CLA      0.069500
    119 H92        86.6172   58.5214   37.8894 dc         1 CLA      0.069500
    120 H91        86.6062   56.8316   38.4126 dc         1 CLA      0.069500
    121 H8         84.1573   58.4465   37.7200 dc         1 CLA      0.029300
    122 H72        82.9688   56.6148   38.9006 dc         1 CLA      0.044400
    123 H71        84.4025   55.5992   38.9890 dc         1 CLA      0.044400
    124 H62        84.6118   55.1700   36.7304 dc         1 CLA      0.015600
    125 H61        83.3134   56.5708   36.4106 dc         1 CLA      0.015600
    126 H52        81.5469   55.1605   37.3666 dc         1 CLA      0.033200
    127 H51        82.5090   53.9827   37.9189 dc         1 CLA      0.033200
    128 H43        83.2078   52.1552   36.3677 dc         1 CLA      0.037000
    129 H42        82.8231   52.2845   34.6502 dc         1 CLA      0.037000
    130 H41        84.1413   53.2816   35.3797 dc         1 CLA      0.037000
    131 H3A        79.7763   59.6112   36.7303 dc         1 CLA      0.041100
    132 H2A        78.4758   56.8955   36.2941 dc         1 CLA      0.083100
    133 H2         80.0253   53.7185   35.6742 da         1 CLA      0.180900
    134 H18        82.1133   63.1642   45.4479 dc         1 CLA     -0.003900
    135 H13        85.4074   58.8644   42.4812 dc         1 CLA      0.019700
    136 H12        80.3075   54.4539   33.2622 dc         1 CLA      0.120400
    137 H11        81.8274   55.2197   33.7971 dc         1 CLA      0.120400
    138 C1         67.4153   62.0028   50.8746 Z1         2 LUT      0.509236
    139 C2         67.0195   63.0746   51.8698 Z2         2 LUT     -0.434695
    140 C3         65.6509   63.7268   51.7089 Z3         2 LUT      0.437453
    141 O3         65.3969   64.8326   52.7385 S1         2 LUT     -0.547129
    142 C4         65.5530   64.2911   50.3451 Z4         2 LUT     -0.468603
    143 C5         66.2582   63.5961   49.2105 Z5         2 LUT      0.279246
    144 C6         67.1167   62.5759   49.4151 Z6         2 LUT     -0.305473
    145 C7         67.9332   61.9533   48.3094 Z7         2 LUT      0.069402
    146 C8         68.4017   62.5471   47.2199 Z8         2 LUT     -0.191631
    147 C9         69.0351   62.1086   46.0004 Z9         2 LUT      0.196698
    148 C10        69.8382   63.0483   45.3868 Y1         2 LUT     -0.208611
    149 C11        70.6636   62.9036   44.1768 Y2         2 LUT      0.030784
    150 C12        71.6094   63.7556   43.8315 Y3         2 LUT     -0.220316
    151 C13        72.6214   63.7167   42.7300 Y4         2 LUT      0.215937
    152 C14        73.7583   64.5024   42.7803 Y5         2 LUT     -0.185793
    153 C15        74.8822   64.5794   41.8565 Y6         2 LUT     -0.057835
    154 C16        66.4946   60.7016   50.9414 Y7         2 LUT     -0.405615
    155 C17        68.7759   61.3865   51.1129 Y7         2 LUT     -0.405615
    156 C18        66.1402   64.5411   48.0558 Y9         2 LUT     -0.369639
    157 C19        68.7224   60.7103   45.4575 W1         2 LUT     -0.333362
    158 C20        72.2903   62.8784   41.5037 W2         2 LUT     -0.323439
    159 C21        86.6698   66.1997   35.9137 Z1         2 LUT      0.406104
    160 C22        87.2567   65.7347   34.5469 Z2         2 LUT     -0.404965
    161 C23        86.9956   66.6423   33.3373 Z3         2 LUT      0.391255
    162 O23        87.1172   65.8689   32.1719 S1         2 LUT     -0.528210
    163 C24        85.7307   67.3431   33.3841 W6         2 LUT     -0.258361
    164 C25        84.8995   67.4251   34.4424 Z5         2 LUT      0.133546
    165 C26        85.1690   66.6015   35.7438 W8         2 LUT     -0.147008
    166 C27        84.3770   67.1857   36.9475 Z7         2 LUT      0.023843
    167 C28        83.1879   66.7479   37.4307 Z8         2 LUT     -0.216987
    168 C29        82.4197   67.1853   38.6308 Z9         2 LUT      0.206524
    169 C30        81.2739   66.4768   38.8542 Y1         2 LUT     -0.215556
    170 C31        80.4065   66.6073   39.9709 Y2         2 LUT      0.025142
    171 C32        79.2009   65.9882   40.0262 Y3         2 LUT     -0.212209
    172 C33        78.3458   65.9643   41.1801 Y4         2 LUT      0.240937
    173 C34        77.0867   65.3479   41.1049 Y5         2 LUT     -0.218862
    174 C35        76.0826   65.3229   42.1291 Y6         2 LUT     -0.023547
    175 C36        87.6287   67.2948   36.3309 Y7         2 LUT     -0.393485
    176 C37        86.9659   65.0991   36.9585 Y7         2 LUT     -0.393485
    177 C38        83.5896   68.0942   34.3530 Y9         2 LUT     -0.387526
    178 C39        82.9095   68.3041   39.4937 W1         2 LUT     -0.322618
    179 C40        78.7698   66.7597   42.4133 W2         2 LUT     -0.358472
    180 H403       78.9284   67.9001   42.1800 R7         2 LUT      0.097720
    181 H402       78.1066   66.7294   43.2670 R7         2 LUT      0.097720
    182 H401       79.6740   66.4720   42.8350 R7         2 LUT      0.097720
    183 H393       83.2520   69.2234   38.9696 R4         2 LUT      0.082505
    184 H392       82.2581   68.6340   40.2835 R4         2 LUT      0.082505
    185 H391       83.7467   67.9778   40.1836 R4         2 LUT      0.082505
    186 H383       82.7025   67.4597   34.3964 R1         2 LUT      0.104030
    187 H382       83.4645   68.8992   35.0675 R1         2 LUT      0.104030
    188 H381       83.6486   68.6648   33.4195 R1         2 LUT      0.104030
    189 H373       88.0354   64.9042   36.9546 T4         2 LUT      0.089537
    190 H372       86.6291   65.4641   37.9440 T4         2 LUT      0.089537
    191 H371       86.3889   64.1921   36.6776 T4         2 LUT      0.089537
    192 H363       87.8047   68.0460   35.5324 T4         2 LUT      0.089537
    193 H362       87.1752   67.9072   37.1620 T4         2 LUT      0.089537
    194 H361       88.6022   66.9894   36.7278 T4         2 LUT      0.089537
    195 H222       88.3890   65.5452   34.6677 U2         2 LUT      0.127376
    196 H221       86.6710   64.7687   34.4568 U2         2 LUT      0.127376
    197 H203       72.2893   61.7230   41.6105 R7         2 LUT      0.087068
    198 H202       71.3282   63.0785   41.1616 R7         2 LUT      0.087068
    199 H201       72.9627   63.1190   40.7411 R7         2 LUT      0.087068
    200 H193       67.7171   60.3835   45.6968 R4         2 LUT      0.089716
    201 H192       69.0203   60.5719   44.4631 R4         2 LUT      0.089716
    202 H191       69.3346   60.0234   45.9886 R4         2 LUT      0.089716
    203 H183       65.1307   64.8383   48.0572 R1         2 LUT      0.094572
    204 H182       66.8547   65.4293   48.0329 R1         2 LUT      0.094572
    205 H181       66.1935   64.0895   47.0845 R1         2 LUT      0.094572
    206 H173       68.8928   61.3269   52.2400 T4         2 LUT      0.093752
    207 H172       68.8520   60.3957   50.7300 T4         2 LUT      0.093752
    208 H171       69.5005   62.0720   50.7147 T4         2 LUT      0.093752
    209 H163       66.7977   59.8267   50.4455 T4         2 LUT      0.093752
    210 H162       66.4646   60.2546   51.9700 T4         2 LUT      0.093752
    211 H161       65.4426   61.0039   50.7382 T4         2 LUT      0.093752
    212 HO3        64.7858   64.5052   53.3421 Q1         2 LUT      0.300121
    213 H8         68.2501   63.6269   47.1855 U7         2 LUT      0.080784
    214 H7         68.0097   60.7981   48.4158 U6         2 LUT      0.042190
    215 H42        64.4956   64.3611   50.0291 U5         2 LUT      0.145166
    216 H41        65.8598   65.3381   50.3868 U5         2 LUT      0.145166
    217 H35        76.1870   65.8972   43.0707 T3         2 LUT      0.077919
    218 H34        76.8863   64.9659   40.1234 T2         2 LUT      0.073626
    219 H32        78.8857   65.5811   39.1121 T1         2 LUT      0.092510
    220 H31        80.9233   67.1210   40.7875 U9         2 LUT      0.070048
    221 H30        81.0645   65.6284   38.1809 U8         2 LUT      0.085442
    222 H3         64.9102   62.9817   51.9545 U3         2 LUT     -0.031596
    223 H28        82.8446   65.7326   36.9245 U7         2 LUT      0.084728
    224 H27        84.7674   68.0430   37.4531 U6         2 LUT      0.087291
    225 H26        84.7222   65.6812   35.3848 Q6         2 LUT      0.075325
    226 H24        85.4671   67.9365   32.4628 Q5         2 LUT      0.094482
    227 H23        87.7392   67.4393   33.3251 U3         2 LUT     -0.024869
    228 H22        67.1555   62.7152   52.9152 U2         2 LUT      0.127376
    229 H21        67.6514   63.9156   51.8169 U2         2 LUT      0.127376
    230 H15        74.8702   64.2026   40.8871 T3         2 LUT      0.093200
    231 H14        73.7793   65.1540   43.6463 T2         2 LUT      0.068865
    232 H12        71.6569   64.6064   44.5379 T1         2 LUT      0.095507
    233 H11        70.3956   62.0247   43.5178 U9         2 LUT      0.068930
    234 H10        69.9903   63.9588   45.9545 U8         2 LUT      0.083911
    235 H1         88.0533   65.7278   31.8980 Q1         2 LUT      0.297311
@<TRIPOS>BOND
    1     6     1 1
    2     7     2 1
    3     8     3 1
    4     9     4 1
    5    11     4 1
    6    12     6 1
    7    13     9 1
    8    16     9 1
    9    25     5 1
   10    25    16 1
   11    26    10 1
   12    26    17 1
   13    27    18 1
   14    28    14 1
   15    28    19 1
   16    29    12 1
   17    30    13 1
   18    31    24 1
   19    32     1 1
   20    32    25 1
   21    33    21 1
   22    33    26 1
   23    34    22 1
   24    34    27 1
   25    35    23 1
   26    35    28 1
   27    36    12 1
   28    36    24 1
   29    37    13 1
   30    37    15 1
   31    38    31 1
   32    39    20 1
   33    39    32 1
   34    40     2 1
   35    40    33 1
   36    41     3 1
   37    41    34 1
   38    42     4 1
   39    42    35 1
   40    43    38 1
   41    44     5 1
   42    44    17 1
   43    44    39 1
   44    45    10 1
   45    45    18 1
   46    45    40 1
   47    46    19 1
   48    46    41 1
   49    47    14 1
   50    47    16 1
   51    47    42 1
   52    48    38 1
   53    49    48 1
   54    50    49 1
   55    51    50 1
   56    52    51 1
   57    53    51 1
   58    54    53 1
   59    55    54 1
   60    56    55 1
   61    57    56 1
   62    58    56 1
   63    59    58 1
   64    60    59 1
   65    61    60 1
   66    62    61 1
   67    63    61 1
   68    64    27 1
   69    64    46 1
   70    65     5 1
   71    65    10 1
   72    65    64 1
   73    65    14 1
   74    66    23 1
   75    67    23 1
   76    68    23 1
   77    69    22 1
   78    70    22 1
   79    71    22 1
   80    72    21 1
   81    73    21 1
   82    74    21 1
   83    75    20 1
   84    76    20 1
   85    77    20 1
   86    78    15 1
   87    79    15 1
   88    80    15 1
   89    81     8 1
   90    82     8 1
   91    83     8 1
   92    84     7 1
   93    85     7 1
   94    86     6 1
   95    87     6 1
   96    88     3 1
   97    89     3 1
   98    90     1 1
   99    91     1 1
  100    92    63 1
  101    93    63 1
  102    94    63 1
  103    95    62 1
  104    96    62 1
  105    97    62 1
  106    98    60 1
  107    99    60 1
  108   100    59 1
  109   101    59 1
  110   102    58 1
  111   103    58 1
  112   104    57 1
  113   105    57 1
  114   106    57 1
  115   107    55 1
  116   108    55 1
  117   109    54 1
  118   110    54 1
  119   111    53 1
  120   112    53 1
  121   113    19 1
  122   114    18 1
  123   115    17 1
  124   116     9 1
  125   117     2 1
  126   118    52 1
  127   119    52 1
  128   120    52 1
  129   121    51 1
  130   122    50 1
  131   123    50 1
  132   124    49 1
  133   125    49 1
  134   126    48 1
  135   127    48 1
  136   128    43 1
  137   129    43 1
  138   130    43 1
  139   131    39 1
  140   132    32 1
  141   133    31 1
  142   134    61 1
  143   135    56 1
  144   136    24 1
  145   137    24 1
  146   139   138 1
  147   140   139 1
  148   141   140 1
  149   142   140 1
  150   143   142 1
  151   144   138 1
  152   144   143 1
  153   145   144 1
  154   146   145 1
  155   147   146 1
  156   148   147 1
  157   149   148 1
  158   150   149 1
  159   151   150 1
  160   152   151 1
  161   153   152 1
  162   154   138 1
  163   155   138 1
  164   156   143 1
  165   157   147 1
  166   158   151 1
  167   160   159 1
  168   161   160 1
  169   162   161 1
  170   163   161 1
  171   164   163 1
  172   165   159 1
  173   165   164 1
  174   166   165 1
  175   167   166 1
  176   168   167 1
  177   169   168 1
  178   170   169 1
  179   171   170 1
  180   172   171 1
  181   173   172 1
  182   174   153 1
  183   174   173 1
  184   175   159 1
  185   176   159 1
  186   177   164 1
  187   178   168 1
  188   179   172 1
  189   180   179 1
  190   181   179 1
  191   182   179 1
  192   183   178 1
  193   184   178 1
  194   185   178 1
  195   186   177 1
  196   187   177 1
  197   188   177 1
  198   189   176 1
  199   190   176 1
  200   191   176 1
  201   192   175 1
  202   193   175 1
  203   194   175 1
  204   195   160 1
  205   196   160 1
  206   197   158 1
  207   198   158 1
  208   199   158 1
  209   200   157 1
  210   201   157 1
  211   202   157 1
  212   203   156 1
  213   204   156 1
  214   205   156 1
  215   206   155 1
  216   207   155 1
  217   208   155 1
  218   209   154 1
  219   210   154 1
  220   211   154 1
  221   212   141 1
  222   213   146 1
  223   214   145 1
  224   215   142 1
  225   216   142 1
  226   217   174 1
  227   218   173 1
  228   219   171 1
  229   220   170 1
  230   221   169 1
  231   222   140 1
  232   223   167 1
  233   224   166 1
  234   225   165 1
  235   226   163 1
  236   227   161 1
  237   228   139 1
  238   229   139 1
  239   230   153 1
  240   231   152 1
  241   232   150 1
  242   233   149 1
  243   234   148 1
  244   235   162 1
  245   65    153 1
  246   65    174 1
@<TRIPOS>SUBSTRUCTURE
      1 CLA               1 ****               0 ****  **** 
      2 LUT             138 ****               0 ****  **** 
