@<TRIPOS>MOLECULE
Cpptraj generated mol2 file.
  235   246     2     0     0
SMALL
USER_CHARGES


@<TRIPOS>ATOM
      1 CAA        77.2819   58.0188   33.4090 a2         1 CLA     -0.055900
      2 CAB        77.2883   61.4803   42.5606 c8         1 CLA     -0.148500
      3 CAC        70.6600   57.3548   42.2270 a2         1 CLA     -0.012600
      4 CAD        73.1599   55.3365   34.6647 ck         1 CLA      0.398800
      5 NA         76.3807   58.4580   36.8153 ns         1 CLA     -0.225500
      6 CBA        78.5782   58.0312   32.5638 a2         1 CLA     -0.135000
      7 CBB        78.3727   61.3934   43.3783 c0         1 CLA     -0.395200
      8 CBC        70.5325   55.8395   41.9961 a3         1 CLA     -0.037700
      9 CBD        74.5405   55.9689   34.2634 a1         1 CLA     -0.053900
     10 NB         76.3008   59.5815   39.5154 nm         1 CLA     -0.295700
     11 OBD        72.4512   54.6870   33.9193 o2         1 CLA     -0.494600
     12 CGA        79.3219   56.6941   32.2664 c4         1 CLA      0.827000
     13 CGD        75.5003   54.8572   33.9697 c4         1 CLA      0.655300
     14 ND         73.6898   57.2806   37.5060 nm         1 CLA     -0.291600
     15 CED        76.6260   52.8848   34.6750 a3         1 CLA      0.005400
     16 CHA        75.0070   56.8870   35.4513 cs         1 CLA     -0.123800
     17 CHB        78.1288   59.7271   37.8966 aa         1 CLA     -0.291900
     18 CHC        74.9252   59.9006   41.5212 aa         1 CLA     -0.090400
     19 CHD        71.9219   57.0645   39.2033 aa         1 CLA     -0.052000
     20 CMA        79.7438   57.6336   36.3418 a3         1 CLA     -0.230700
     21 CMB        79.4352   61.5587   40.1448 a3         1 CLA     -0.180800
     22 CMC        72.7016   59.4655   43.7559 a3         1 CLA     -0.134000
     23 CMD        70.8125   54.9577   37.2976 a3         1 CLA     -0.141100
     24 C1         80.7473   55.0325   33.1530 a2         1 CLA      0.023000
     25 C1A        76.2226   57.6359   35.6968 ac         1 CLA     -0.015100
     26 C1B        77.5339   59.9964   39.0859 cr         1 CLA      0.054700
     27 C1C        73.8754   59.0731   41.3678 cn         1 CLA     -0.005600
     28 C1D        72.4253   56.8047   37.9324 ap         1 CLA     -0.047300
     29 O1A        79.2617   56.1448   31.2078 o2         1 CLA     -0.610800
     30 O1D        76.0553   54.6813   32.8727 o2         1 CLA     -0.558200
     31 C2         81.3820   54.5266   34.4195 c8         1 CLA     -0.325100
     32 C2A        77.5106   57.5308   34.9037 a1         1 CLA      0.098600
     33 C2B        78.1055   60.8455   40.1334 cb         1 CLA      0.088500
     34 C2C        72.7765   58.8171   42.3642 cb         1 CLA      0.053700
     35 C2D        72.0329   55.7309   37.0580 cb         1 CLA      0.058900
     36 O2A        80.0982   56.3020   33.3192 o1         1 CLA     -0.437200
     37 O2D        75.6982   53.9923   35.0166 o1         1 CLA     -0.357600
     38 C3         81.9632   53.3944   34.6173 c5         1 CLA      0.031200
     39 C3A        78.5271   58.4583   35.7352 a1         1 CLA      0.166800
     40 C3B        77.2645   60.8211   41.2520 cb         1 CLA      0.035000
     41 C3C        71.9171   58.0053   41.6212 cb         1 CLA     -0.089900
     42 C3D        72.8688   55.8050   35.9867 cb         1 CLA     -0.035900
     43 C4         81.0543   52.3723   35.3544 a3         1 CLA     -0.053300
     44 C4A        77.6518   58.8742   36.8774 ac         1 CLA      0.001800
     45 C4B        76.0971   60.0615   40.7838 cn         1 CLA     -0.020900
     46 C4C        72.4557   57.8094   40.2841 cr         1 CLA     -0.044400
     47 C4D        73.9483   56.7307   36.3244 c6         1 CLA     -0.046000
     48 C5         83.4434   53.3444   34.4250 a2         1 CLA     -0.070400
     49 C6         84.3177   54.5017   34.9743 a2         1 CLA      0.043900
     50 C7         84.1940   54.6651   36.5115 a2         1 CLA     -0.150000
     51 C8         85.1006   55.7652   37.0771 a1         1 CLA      0.064200
     52 C9         86.5383   55.3047   36.8152 a3         1 CLA     -0.259300
     53 C10        84.8412   56.1040   38.6200 a2         1 CLA     -0.071900
     54 C11        83.3983   56.4084   39.0196 a2         1 CLA      0.014500
     55 C12        83.3397   56.9859   40.4449 a2         1 CLA     -0.112100
     56 C13        81.8586   57.0146   40.9050 a1         1 CLA      0.089200
     57 C14        80.9566   57.8544   39.9121 a3         1 CLA     -0.239100
     58 C15        81.7325   57.5028   42.3911 a2         1 CLA     -0.102200
     59 C16        82.3861   58.9501   42.7111 a2         1 CLA      0.023900
     60 C17        82.0478   59.4141   44.1545 a2         1 CLA     -0.105700
     61 C18        82.5192   60.8205   44.6624 a1         1 CLA      0.206800
     62 C19        84.0899   60.9470   44.8208 a3         1 CLA     -0.280100
     63 C20        81.9609   62.0314   43.9075 a3         1 CLA     -0.280100
     64 NC         73.6499   58.4302   40.1968 nx         1 CLA     -0.309200
     65 MG         74.9198   58.5413   38.4418 mg         1 CLA      0.895000
     66 HMD3       70.8995   54.5334   38.2956 dc         1 CLA      0.064300
     67 HMD2       69.9471   55.5969   37.1061 dc         1 CLA      0.064300
     68 HMD1       70.7716   54.1072   36.5954 dc         1 CLA      0.064300
     69 HMC3       71.6755   59.7309   43.9592 dc         1 CLA      0.052100
     70 HMC2       73.1674   58.7758   44.4707 dc         1 CLA      0.052100
     71 HMC1       73.2647   60.4247   43.7888 dc         1 CLA      0.052100
     72 HMB3       80.2304   60.8354   40.4077 dc         1 CLA      0.063600
     73 HMB2       79.6919   61.9500   39.1036 dc         1 CLA      0.063600
     74 HMB1       79.4113   62.3991   40.8459 dc         1 CLA      0.063600
     75 HMA3       79.3592   56.8858   36.9452 dc         1 CLA      0.058300
     76 HMA2       80.2273   57.3372   35.4453 dc         1 CLA      0.058300
     77 HMA1       80.3545   58.3571   36.9203 dc         1 CLA      0.058300
     78 HED3       76.5170   52.4498   33.6864 dc         1 CLA      0.079300
     79 HED2       77.6442   53.1630   34.8470 dc         1 CLA      0.079300
     80 HED1       76.4139   52.1179   35.4450 dc         1 CLA      0.079300
     81 HBC3       71.5596   55.4176   42.0266 dc         1 CLA      0.016300
     82 HBC2       69.8485   55.3320   42.6869 dc         1 CLA      0.016300
     83 HBC1       70.0910   55.7444   40.9844 dc         1 CLA      0.016300
     84 HBB2       78.4583   61.9664   44.2805 da         1 CLA      0.183000
     85 HBB1       79.2785   60.7909   43.1823 da         1 CLA      0.183000
     86 HBA2       78.4015   58.3669   31.5950 dc         1 CLA      0.029400
     87 HBA1       79.1402   58.8625   33.0059 dc         1 CLA      0.029400
     88 HAC2       70.6234   57.6023   43.2940 dc         1 CLA      0.029300
     89 HAC1       69.8068   57.7753   41.6262 dc         1 CLA      0.029300
     90 HAA2       76.5853   57.2980   33.0375 dc         1 CLA      0.028700
     91 HAA1       76.8377   59.0765   33.3502 dc         1 CLA      0.028700
     92 H203       82.2006   62.9050   44.4612 dc         1 CLA      0.065600
     93 H202       82.4182   62.1108   42.9035 dc         1 CLA      0.065600
     94 H201       80.8907   61.9699   43.7635 dc         1 CLA      0.065600
     95 H193       84.5003   61.0713   43.8296 dc         1 CLA      0.065600
     96 H192       84.3025   61.7907   45.5081 dc         1 CLA      0.065600
     97 H191       84.5574   60.1123   45.2541 dc         1 CLA      0.065600
     98 H172       81.0357   59.4285   44.0102 dc         1 CLA      0.027600
     99 H171       82.3590   58.7086   44.9876 dc         1 CLA      0.027600
    100 H162       83.4594   58.9729   42.5432 dc         1 CLA      0.002900
    101 H161       81.9469   59.6239   42.0607 dc         1 CLA      0.002900
    102 H152       80.6848   57.4573   42.6838 dc         1 CLA      0.029100
    103 H151       82.2483   56.6449   42.8393 dc         1 CLA      0.029100
    104 H143       79.8724   57.8045   40.2605 dc         1 CLA      0.063600
    105 H142       81.4534   58.8412   39.8870 dc         1 CLA      0.063600
    106 H141       80.8979   57.4509   38.9030 dc         1 CLA      0.063600
    107 H122       83.8826   56.3042   41.0392 dc         1 CLA      0.032500
    108 H121       83.7257   58.0185   40.5193 dc         1 CLA      0.032500
    109 H112       83.0080   57.0629   38.2187 dc         1 CLA      0.006600
    110 H111       82.9470   55.4268   39.0919 dc         1 CLA      0.006600
    111 H102       85.2962   55.4452   39.3056 dc         1 CLA      0.024100
    112 H101       85.3944   57.0070   38.7598 dc         1 CLA      0.024100
    113 HHD        70.9577   56.5872   39.3232 da         1 CLA      0.174300
    114 HHC        74.9236   60.4483   42.4584 da         1 CLA      0.136800
    115 HHB        79.1014   60.0879   37.7484 da         1 CLA      0.138300
    116 HBD        74.3873   56.7033   33.4288 dc         1 CLA      0.107700
    117 HAB        76.4997   62.1494   42.9192 da         1 CLA      0.155200
    118 H93        87.1004   55.8724   37.5518 dc         1 CLA      0.069500
    119 H92        86.6474   54.2844   37.0436 dc         1 CLA      0.069500
    120 H91        86.7906   55.5491   35.7831 dc         1 CLA      0.069500
    121 H8         84.8512   56.7292   36.5559 dc         1 CLA      0.029300
    122 H72        83.1263   54.8192   36.6823 dc         1 CLA      0.044400
    123 H71        84.5206   53.7902   36.9558 dc         1 CLA      0.044400
    124 H62        85.3775   54.4067   34.8307 dc         1 CLA      0.015600
    125 H61        83.9597   55.4645   34.4950 dc         1 CLA      0.015600
    126 H52        83.8645   52.4535   34.8563 dc         1 CLA      0.033200
    127 H51        83.6252   53.2520   33.4289 dc         1 CLA      0.033200
    128 H43        80.0479   52.7435   35.5852 dc         1 CLA      0.037000
    129 H42        80.9704   51.3882   34.9611 dc         1 CLA      0.037000
    130 H41        81.5640   52.3269   36.3317 dc         1 CLA      0.037000
    131 H3A        78.8623   59.2998   35.1519 dc         1 CLA      0.041100
    132 H2A        77.9045   56.5570   34.8368 dc         1 CLA      0.083100
    133 H2         81.4184   55.1799   35.2788 da         1 CLA      0.180900
    134 H18        82.0090   60.8963   45.6392 dc         1 CLA     -0.003900
    135 H13        81.4481   56.0517   41.0180 dc         1 CLA      0.019700
    136 H12        80.0929   54.1808   32.8718 dc         1 CLA      0.120400
    137 H11        81.5483   55.0847   32.4118 dc         1 CLA      0.120400
    138 C1         67.8571   60.5123   49.6060 Z1         2 LUT      0.509236
    139 C2         67.5314   61.3633   50.8131 Z2         2 LUT     -0.434695
    140 C3         66.0525   61.8572   50.7887 Z3         2 LUT      0.437453
    141 O3         65.8353   62.7145   51.8798 S1         2 LUT     -0.547129
    142 C4         65.8315   62.7814   49.5662 Z4         2 LUT     -0.468603
    143 C5         66.4171   62.2115   48.2485 Z5         2 LUT      0.279246
    144 C6         67.2986   61.1924   48.2638 Z6         2 LUT     -0.305473
    145 C7         67.9780   60.8456   46.9014 Z7         2 LUT      0.069402
    146 C8         68.8512   61.5729   46.1851 Z8         2 LUT     -0.191631
    147 C9         69.4506   61.1779   44.8465 Z9         2 LUT      0.196698
    148 C10        70.2734   62.0930   44.1929 Y1         2 LUT     -0.208611
    149 C11        70.9514   62.0122   42.9031 Y2         2 LUT      0.030784
    150 C12        71.8237   62.9018   42.4105 Y3         2 LUT     -0.220316
    151 C13        72.6556   62.7316   41.2178 Y4         2 LUT      0.215937
    152 C14        73.7370   63.5786   41.2004 Y5         2 LUT     -0.185793
    153 C15        74.8655   63.4486   40.3110 Y6         2 LUT     -0.057835
    154 C16        67.1831   59.1343   49.7493 Y7         2 LUT     -0.405615
    155 C17        69.4032   60.1988   49.5618 Y7         2 LUT     -0.405615
    156 C18        66.1452   63.1316   46.9854 Y9         2 LUT     -0.369639
    157 C19        68.9970   59.8722   44.2718 W1         2 LUT     -0.333362
    158 C20        72.2135   61.8395   40.1122 W2         2 LUT     -0.323439
    159 C21        86.0342   64.4815   33.9478 Z1         2 LUT      0.406104
    160 C22        86.7724   63.7562   32.6474 Z2         2 LUT     -0.404965
    161 C23        86.7915   64.7325   31.4562 Z3         2 LUT      0.391255
    162 O23        87.3379   63.9010   30.4944 S1         2 LUT     -0.528210
    163 C24        85.4892   65.4281   31.3022 W6         2 LUT     -0.258361
    164 C25        84.4522   65.6163   32.2350 Z5         2 LUT      0.133546
    165 C26        84.5564   64.8968   33.5321 W8         2 LUT     -0.147008
    166 C27        83.7568   65.5853   34.6733 Z7         2 LUT      0.023843
    167 C28        82.7690   64.9855   35.3758 Z8         2 LUT     -0.216987
    168 C29        82.0895   65.4681   36.5787 Z9         2 LUT      0.206524
    169 C30        80.9099   64.8226   36.9649 Y1         2 LUT     -0.215556
    170 C31        80.2348   65.1997   38.1464 Y2         2 LUT      0.025142
    171 C32        79.0193   64.6482   38.2569 Y3         2 LUT     -0.212209
    172 C33        78.1898   64.8169   39.3620 Y4         2 LUT      0.240937
    173 C34        77.0064   64.0940   39.4053 Y5         2 LUT     -0.218862
    174 C35        76.0147   64.1182   40.4668 Y6         2 LUT     -0.023547
    175 C36        86.8606   65.6775   34.4910 Y7         2 LUT     -0.393485
    176 C37        86.1286   63.3631   35.1363 Y7         2 LUT     -0.393485
    177 C38        83.2905   66.4300   31.9104 Y9         2 LUT     -0.387526
    178 C39        82.7435   66.6173   37.2775 W1         2 LUT     -0.322618
    179 C40        78.7019   65.6158   40.5901 W2         2 LUT     -0.358472
    180 H403       79.4429   64.9746   41.0475 R7         2 LUT      0.097720
    181 H402       78.9506   66.5946   40.2636 R7         2 LUT      0.097720
    182 H401       77.8669   65.7893   41.3015 R7         2 LUT      0.097720
    183 H393       82.4727   66.7778   38.3344 R4         2 LUT      0.082505
    184 H392       83.8586   66.5921   37.2090 R4         2 LUT      0.082505
    185 H391       82.5674   67.5696   36.7405 R4         2 LUT      0.082505
    186 H383       82.9038   66.9489   32.8013 R1         2 LUT      0.104030
    187 H382       83.5827   67.0372   31.0810 R1         2 LUT      0.104030
    188 H381       82.4879   65.7289   31.5057 R1         2 LUT      0.104030
    189 H373       85.6463   62.3911   34.8705 T4         2 LUT      0.089537
    190 H372       87.1597   63.0915   35.4794 T4         2 LUT      0.089537
    191 H371       85.5346   63.7431   35.8788 T4         2 LUT      0.089537
    192 H363       86.7735   66.5543   33.7632 T4         2 LUT      0.089537
    193 H362       86.5567   66.0879   35.4825 T4         2 LUT      0.089537
    194 H361       87.9095   65.3792   34.4389 T4         2 LUT      0.089537
    195 H222       87.7303   63.3627   32.8897 U2         2 LUT      0.127376
    196 H221       86.0756   62.9488   32.4301 U2         2 LUT      0.127376
    197 H203       73.0305   61.4750   39.4807 R7         2 LUT      0.087068
    198 H202       71.8988   60.8794   40.4805 R7         2 LUT      0.087068
    199 H201       71.3986   62.1507   39.5211 R7         2 LUT      0.087068
    200 H193       69.2456   59.0954   45.0137 R4         2 LUT      0.089716
    201 H192       67.9247   59.8547   44.4669 R4         2 LUT      0.089716
    202 H191       69.2379   59.6206   43.2947 R4         2 LUT      0.089716
    203 H183       66.9927   63.7518   46.7341 R1         2 LUT      0.094572
    204 H182       65.8342   62.4306   46.1956 R1         2 LUT      0.094572
    205 H181       65.2524   63.7420   47.2589 R1         2 LUT      0.094572
    206 H173       69.8333   61.1102   49.3418 T4         2 LUT      0.093752
    207 H172       69.8628   59.9505   50.5482 T4         2 LUT      0.093752
    208 H171       69.7821   59.4614   48.8518 T4         2 LUT      0.093752
    209 H163       67.3327   58.6866   50.7218 T4         2 LUT      0.093752
    210 H162       66.1282   59.2773   49.5510 T4         2 LUT      0.093752
    211 H161       67.4850   58.3694   49.0269 T4         2 LUT      0.093752
    212 HO3        65.4931   62.2145   52.6181 Q1         2 LUT      0.300121
    213 H8         69.0282   62.5333   46.5621 U7         2 LUT      0.080784
    214 H7         67.7405   59.8513   46.5524 U6         2 LUT      0.042190
    215 H42        64.7586   62.9931   49.4702 U5         2 LUT      0.145166
    216 H41        66.1621   63.8205   49.7705 U5         2 LUT      0.145166
    217 H35        76.1461   64.7137   41.3961 T3         2 LUT      0.077919
    218 H34        76.6946   63.4819   38.5787 T2         2 LUT      0.073626
    219 H32        78.7116   63.8871   37.5048 T1         2 LUT      0.092510
    220 H31        80.8054   65.7400   38.9538 U9         2 LUT      0.070048
    221 H30        80.5121   64.0067   36.3400 U8         2 LUT      0.085442
    222 H3         65.3681   61.0112   50.6538 U3         2 LUT     -0.031596
    223 H28        82.3392   64.0359   35.0430 U7         2 LUT      0.084728
    224 H27        84.2281   66.5589   34.9273 U6         2 LUT      0.087291
    225 H26        83.9733   64.0132   33.2379 Q6         2 LUT      0.075325
    226 H24        85.3879   65.9060   30.3379 Q5         2 LUT      0.094482
    227 H23        87.4674   65.5388   31.7872 U3         2 LUT     -0.024869
    228 H22        67.5871   60.7305   51.7109 U2         2 LUT      0.127376
    229 H21        68.1337   62.1896   50.9297 U2         2 LUT      0.127376
    230 H15        74.7866   62.8478   39.3816 T3         2 LUT      0.093200
    231 H14        73.8963   64.1833   41.9902 T2         2 LUT      0.068865
    232 H12        72.0564   63.7643   43.0263 T1         2 LUT      0.095507
    233 H11        70.8219   61.0895   42.3455 U9         2 LUT      0.068930
    234 H10        70.5465   63.0979   44.6600 U8         2 LUT      0.083911
    235 H1         87.2753   64.2873   29.5792 Q1         2 LUT      0.297311
@<TRIPOS>BOND
    1     6     1 1
    2     7     2 1
    3     8     3 1
    4     9     4 1
    5    11     4 1
    6    12     6 1
    7    13     9 1
    8    16     9 1
    9    25     5 1
   10    25    16 1
   11    26    10 1
   12    26    17 1
   13    27    18 1
   14    28    14 1
   15    28    19 1
   16    29    12 1
   17    30    13 1
   18    31    24 1
   19    32     1 1
   20    32    25 1
   21    33    21 1
   22    33    26 1
   23    34    22 1
   24    34    27 1
   25    35    23 1
   26    35    28 1
   27    36    12 1
   28    36    24 1
   29    37    13 1
   30    37    15 1
   31    38    31 1
   32    39    20 1
   33    39    32 1
   34    40     2 1
   35    40    33 1
   36    41     3 1
   37    41    34 1
   38    42     4 1
   39    42    35 1
   40    43    38 1
   41    44     5 1
   42    44    17 1
   43    44    39 1
   44    45    10 1
   45    45    18 1
   46    45    40 1
   47    46    19 1
   48    46    41 1
   49    47    14 1
   50    47    16 1
   51    47    42 1
   52    48    38 1
   53    49    48 1
   54    50    49 1
   55    51    50 1
   56    52    51 1
   57    53    51 1
   58    54    53 1
   59    55    54 1
   60    56    55 1
   61    57    56 1
   62    58    56 1
   63    59    58 1
   64    60    59 1
   65    61    60 1
   66    62    61 1
   67    63    61 1
   68    64    27 1
   69    64    46 1
   70    65     5 1
   71    65    10 1
   72    65    64 1
   73    65    14 1
   74    66    23 1
   75    67    23 1
   76    68    23 1
   77    69    22 1
   78    70    22 1
   79    71    22 1
   80    72    21 1
   81    73    21 1
   82    74    21 1
   83    75    20 1
   84    76    20 1
   85    77    20 1
   86    78    15 1
   87    79    15 1
   88    80    15 1
   89    81     8 1
   90    82     8 1
   91    83     8 1
   92    84     7 1
   93    85     7 1
   94    86     6 1
   95    87     6 1
   96    88     3 1
   97    89     3 1
   98    90     1 1
   99    91     1 1
  100    92    63 1
  101    93    63 1
  102    94    63 1
  103    95    62 1
  104    96    62 1
  105    97    62 1
  106    98    60 1
  107    99    60 1
  108   100    59 1
  109   101    59 1
  110   102    58 1
  111   103    58 1
  112   104    57 1
  113   105    57 1
  114   106    57 1
  115   107    55 1
  116   108    55 1
  117   109    54 1
  118   110    54 1
  119   111    53 1
  120   112    53 1
  121   113    19 1
  122   114    18 1
  123   115    17 1
  124   116     9 1
  125   117     2 1
  126   118    52 1
  127   119    52 1
  128   120    52 1
  129   121    51 1
  130   122    50 1
  131   123    50 1
  132   124    49 1
  133   125    49 1
  134   126    48 1
  135   127    48 1
  136   128    43 1
  137   129    43 1
  138   130    43 1
  139   131    39 1
  140   132    32 1
  141   133    31 1
  142   134    61 1
  143   135    56 1
  144   136    24 1
  145   137    24 1
  146   139   138 1
  147   140   139 1
  148   141   140 1
  149   142   140 1
  150   143   142 1
  151   144   138 1
  152   144   143 1
  153   145   144 1
  154   146   145 1
  155   147   146 1
  156   148   147 1
  157   149   148 1
  158   150   149 1
  159   151   150 1
  160   152   151 1
  161   153   152 1
  162   154   138 1
  163   155   138 1
  164   156   143 1
  165   157   147 1
  166   158   151 1
  167   160   159 1
  168   161   160 1
  169   162   161 1
  170   163   161 1
  171   164   163 1
  172   165   159 1
  173   165   164 1
  174   166   165 1
  175   167   166 1
  176   168   167 1
  177   169   168 1
  178   170   169 1
  179   171   170 1
  180   172   171 1
  181   173   172 1
  182   174   153 1
  183   174   173 1
  184   175   159 1
  185   176   159 1
  186   177   164 1
  187   178   168 1
  188   179   172 1
  189   180   179 1
  190   181   179 1
  191   182   179 1
  192   183   178 1
  193   184   178 1
  194   185   178 1
  195   186   177 1
  196   187   177 1
  197   188   177 1
  198   189   176 1
  199   190   176 1
  200   191   176 1
  201   192   175 1
  202   193   175 1
  203   194   175 1
  204   195   160 1
  205   196   160 1
  206   197   158 1
  207   198   158 1
  208   199   158 1
  209   200   157 1
  210   201   157 1
  211   202   157 1
  212   203   156 1
  213   204   156 1
  214   205   156 1
  215   206   155 1
  216   207   155 1
  217   208   155 1
  218   209   154 1
  219   210   154 1
  220   211   154 1
  221   212   141 1
  222   213   146 1
  223   214   145 1
  224   215   142 1
  225   216   142 1
  226   217   174 1
  227   218   173 1
  228   219   171 1
  229   220   170 1
  230   221   169 1
  231   222   140 1
  232   223   167 1
  233   224   166 1
  234   225   165 1
  235   226   163 1
  236   227   161 1
  237   228   139 1
  238   229   139 1
  239   230   153 1
  240   231   152 1
  241   232   150 1
  242   233   149 1
  243   234   148 1
  244   235   162 1
  245   65    153 1
  246   65    174 1
@<TRIPOS>SUBSTRUCTURE
      1 CLA               1 ****               0 ****  **** 
      2 LUT             138 ****               0 ****  **** 
