@<TRIPOS>MOLECULE
Cpptraj generated mol2 file.
  235   246     2     0     0
SMALL
USER_CHARGES


@<TRIPOS>ATOM
      1 CAA        77.7617   58.8425   35.0210 a2         1 CLA     -0.055900
      2 CAB        77.6245   62.6373   44.0683 c8         1 CLA     -0.148500
      3 CAC        70.9982   58.1163   43.7285 a2         1 CLA     -0.012600
      4 CAD        73.9653   55.8199   36.4722 ck         1 CLA      0.398800
      5 NA         76.6374   59.3639   38.2644 ns         1 CLA     -0.225500
      6 CBA        78.9976   58.9141   34.1224 a2         1 CLA     -0.135000
      7 CBB        76.7017   63.2444   44.8476 c0         1 CLA     -0.395200
      8 CBC        70.9833   56.5708   43.5872 a3         1 CLA     -0.037700
      9 CBD        75.3016   56.5053   36.0726 a1         1 CLA     -0.053900
     10 NB         76.4172   60.7451   41.0436 nm         1 CLA     -0.295700
     11 OBD        73.5163   54.8085   35.8481 o2         1 CLA     -0.494600
     12 CGA        79.5976   57.5974   33.6015 c4         1 CLA      0.827000
     13 CGD        76.3485   55.4065   35.9745 c4         1 CLA      0.655300
     14 ND         73.8437   58.2209   39.0061 nm         1 CLA     -0.291600
     15 CED        76.9328   53.3044   36.7572 a3         1 CLA      0.005400
     16 CHA        75.5343   57.5479   37.1524 cs         1 CLA     -0.123800
     17 CHB        78.2740   60.8705   39.3995 aa         1 CLA     -0.291900
     18 CHC        75.2105   60.8184   43.1660 aa         1 CLA     -0.090400
     19 CHD        72.1297   57.8992   40.6726 aa         1 CLA     -0.052000
     20 CMA        80.0003   58.7377   37.9594 a3         1 CLA     -0.230700
     21 CMB        79.7042   62.5360   41.3935 a3         1 CLA     -0.180800
     22 CMC        73.0462   60.1017   45.2022 a3         1 CLA     -0.134000
     23 CMD        71.0387   55.7462   38.5109 a3         1 CLA     -0.141100
     24 C1         80.9209   55.7162   34.1077 a2         1 CLA      0.023000
     25 C1A        76.6586   58.4155   37.2653 ac         1 CLA     -0.015100
     26 C1B        77.6755   61.2059   40.5958 cr         1 CLA      0.054700
     27 C1C        74.1388   59.9560   42.8143 cn         1 CLA     -0.005600
     28 C1D        72.7169   57.6014   39.4235 ap         1 CLA     -0.047300
     29 O1A        79.5019   57.2385   32.4422 o2         1 CLA     -0.610800
     30 O1D        77.0856   55.2112   34.9820 o2         1 CLA     -0.558200
     31 C2         81.8007   55.1527   35.2098 c8         1 CLA     -0.325100
     32 C2A        77.9972   58.4319   36.5107 a1         1 CLA      0.098600
     33 C2B        78.3320   61.9346   41.6394 cb         1 CLA      0.088500
     34 C2C        73.0225   59.6791   43.6979 cb         1 CLA      0.053700
     35 C2D        72.3299   56.5432   38.5427 cb         1 CLA      0.058900
     36 O2A        80.3438   56.9317   34.5904 o1         1 CLA     -0.437200
     37 O2D        76.2520   54.5332   37.0148 o1         1 CLA     -0.357600
     38 C3         83.0196   55.6956   35.5375 c5         1 CLA      0.031200
     39 C3A        78.8359   59.5170   37.3121 a1         1 CLA      0.166800
     40 C3B        77.4446   61.9150   42.7551 cb         1 CLA      0.035000
     41 C3C        72.1475   58.8423   43.0157 cb         1 CLA     -0.089900
     42 C3D        73.4340   56.5044   37.6209 cb         1 CLA     -0.035900
     43 C4         84.3343   55.4389   34.8220 a3         1 CLA     -0.053300
     44 C4A        77.8411   60.0308   38.3596 ac         1 CLA      0.001800
     45 C4B        76.2961   61.1395   42.3489 cn         1 CLA     -0.020900
     46 C4C        72.6638   58.7069   41.6785 cr         1 CLA     -0.044400
     47 C4D        74.3713   57.5255   37.9341 c6         1 CLA     -0.046000
     48 C5         83.0384   56.4932   36.8148 a2         1 CLA     -0.070400
     49 C6         83.4948   55.7143   38.0905 a2         1 CLA      0.043900
     50 C7         83.4266   56.6856   39.3075 a2         1 CLA     -0.150000
     51 C8         83.9976   58.1711   39.2443 a1         1 CLA      0.064200
     52 C9         85.4757   58.2875   38.6591 a3         1 CLA     -0.259300
     53 C10        83.9827   58.7813   40.6766 a2         1 CLA     -0.071900
     54 C11        82.5148   58.9070   41.4168 a2         1 CLA      0.014500
     55 C12        82.2723   60.1372   42.2583 a2         1 CLA     -0.112100
     56 C13        83.3006   60.2655   43.4194 a1         1 CLA      0.089200
     57 C14        83.1760   59.1116   44.4273 a3         1 CLA     -0.239100
     58 C15        83.1495   61.6806   44.0816 a2         1 CLA     -0.102200
     59 C16        84.0982   61.9252   45.2821 a2         1 CLA      0.023900
     60 C17        83.8989   63.3711   45.7545 a2         1 CLA     -0.105700
     61 C18        84.8301   63.7789   46.8842 a1         1 CLA      0.206800
     62 C19        84.8916   65.3370   46.9456 a3         1 CLA     -0.280100
     63 C20        84.3337   63.0972   48.1632 a3         1 CLA     -0.280100
     64 NC         73.8386   59.3992   41.5729 nx         1 CLA     -0.309200
     65 MG         75.1110   59.5217   39.9009 mg         1 CLA      0.895000
     66 HMD3       71.0948   54.9080   37.8550 dc         1 CLA      0.064300
     67 HMD2       70.7421   55.4241   39.5398 dc         1 CLA      0.064300
     68 HMD1       70.3102   56.5301   38.2291 dc         1 CLA      0.064300
     69 HMC3       74.0411   59.7232   45.5059 dc         1 CLA      0.052100
     70 HMC2       73.0665   61.1977   45.2117 dc         1 CLA      0.052100
     71 HMC1       72.2953   59.7357   45.8844 dc         1 CLA      0.052100
     72 HMB3       79.7440   63.0399   40.4369 dc         1 CLA      0.063600
     73 HMB2       80.0405   63.2197   42.2053 dc         1 CLA      0.063600
     74 HMB1       80.4633   61.7558   41.3049 dc         1 CLA      0.063600
     75 HMA3       79.5782   57.8518   38.4766 dc         1 CLA      0.058300
     76 HMA2       80.6224   58.4347   37.1560 dc         1 CLA      0.058300
     77 HMA1       80.5754   59.4235   38.6891 dc         1 CLA      0.058300
     78 HED3       76.3294   52.8835   35.9499 dc         1 CLA      0.079300
     79 HED2       77.9667   53.5639   36.5210 dc         1 CLA      0.079300
     80 HED1       76.8622   52.6774   37.6773 dc         1 CLA      0.079300
     81 HBC3       71.9772   56.2015   44.0172 dc         1 CLA      0.016300
     82 HBC2       70.3206   56.0197   44.2766 dc         1 CLA      0.016300
     83 HBC1       70.8597   56.0974   42.5912 dc         1 CLA      0.016300
     84 HBB2       76.9403   63.7564   45.7758 da         1 CLA      0.183000
     85 HBB1       75.6263   63.3852   44.5379 da         1 CLA      0.183000
     86 HBA2       78.6579   59.5166   33.2202 dc         1 CLA      0.029400
     87 HBA1       79.8087   59.4160   34.6737 dc         1 CLA      0.029400
     88 HAC2       71.0813   58.3101   44.8158 dc         1 CLA      0.029300
     89 HAC1       70.0182   58.4595   43.3776 dc         1 CLA      0.029300
     90 HAA2       77.1483   58.0076   34.6813 dc         1 CLA      0.028700
     91 HAA1       77.2308   59.7700   34.9477 dc         1 CLA      0.028700
     92 H203       84.3926   61.9918   48.2984 dc         1 CLA      0.065600
     93 H202       84.8728   63.4148   49.0246 dc         1 CLA      0.065600
     94 H201       83.2583   63.4225   48.4120 dc         1 CLA      0.065600
     95 H193       85.3831   65.7506   46.1228 dc         1 CLA      0.065600
     96 H192       83.9700   65.7356   47.2225 dc         1 CLA      0.065600
     97 H191       85.5301   65.5863   47.7602 dc         1 CLA      0.065600
     98 H172       84.1769   63.9699   44.9102 dc         1 CLA      0.027600
     99 H171       82.8515   63.5877   46.0409 dc         1 CLA      0.027600
    100 H162       83.8872   61.2654   46.0990 dc         1 CLA      0.002900
    101 H161       85.1451   61.8150   45.0059 dc         1 CLA      0.002900
    102 H152       83.1700   62.4508   43.3691 dc         1 CLA      0.029100
    103 H151       82.1621   61.7620   44.5660 dc         1 CLA      0.029100
    104 H143       83.3101   58.1584   43.9536 dc         1 CLA      0.063600
    105 H142       83.9517   59.2040   45.1656 dc         1 CLA      0.063600
    106 H141       82.1924   59.0314   44.8429 dc         1 CLA      0.063600
    107 H122       82.3353   60.9904   41.6420 dc         1 CLA      0.032500
    108 H121       81.2766   59.9293   42.6186 dc         1 CLA      0.032500
    109 H112       81.7228   58.8067   40.7310 dc         1 CLA      0.006600
    110 H111       82.4799   57.9593   42.0341 dc         1 CLA      0.006600
    111 H102       84.6539   58.1615   41.3370 dc         1 CLA      0.024100
    112 H101       84.4169   59.7616   40.7070 dc         1 CLA      0.024100
    113 HHD        71.1869   57.4205   40.8334 da         1 CLA      0.174300
    114 HHC        75.3922   61.1362   44.2391 da         1 CLA      0.136800
    115 HHB        79.2159   61.3665   39.1691 da         1 CLA      0.138300
    116 HBD        75.1134   56.9640   35.0656 dc         1 CLA      0.107700
    117 HAB        78.6249   62.6675   44.4364 da         1 CLA      0.155200
    118 H93        85.8161   59.3583   38.5722 dc         1 CLA      0.069500
    119 H92        86.0685   57.6110   39.2467 dc         1 CLA      0.069500
    120 H91        85.5096   57.9366   37.5918 dc         1 CLA      0.069500
    121 H8         83.3294   58.6957   38.6087 dc         1 CLA      0.029300
    122 H72        82.3549   56.7333   39.6036 dc         1 CLA      0.044400
    123 H71        83.7875   56.1463   40.1929 dc         1 CLA      0.044400
    124 H62        82.9676   54.7396   38.2420 dc         1 CLA      0.015600
    125 H61        84.5704   55.4128   38.1119 dc         1 CLA      0.015600
    126 H52        83.6845   57.4336   36.5843 dc         1 CLA      0.033200
    127 H51        82.0622   56.7934   37.0358 dc         1 CLA      0.033200
    128 H43        84.1127   54.8545   33.9395 dc         1 CLA      0.037000
    129 H42        84.8562   56.3762   34.5381 dc         1 CLA      0.037000
    130 H41        84.9520   54.8679   35.5394 dc         1 CLA      0.037000
    131 H3A        79.2126   60.2941   36.6463 dc         1 CLA      0.041100
    132 H2A        78.4484   57.4193   36.6052 dc         1 CLA      0.083100
    133 H2         81.5882   54.1605   35.5548 da         1 CLA      0.180900
    134 H18        85.8518   63.4012   46.6258 dc         1 CLA     -0.003900
    135 H13        84.2397   60.2693   42.9925 dc         1 CLA      0.019700
    136 H12        80.2182   55.0104   33.7798 dc         1 CLA      0.120400
    137 H11        81.5012   55.8833   33.1710 dc         1 CLA      0.120400
    138 C1         66.9467   61.9398   51.0252 Z1         2 LUT      0.509236
    139 C2         66.8368   63.2089   51.8464 Z2         2 LUT     -0.434695
    140 C3         65.6025   64.0545   51.7870 Z3         2 LUT      0.437453
    141 O3         66.0070   65.4009   52.1152 S1         2 LUT     -0.547129
    142 C4         65.0345   64.0123   50.3340 Z4         2 LUT     -0.468603
    143 C5         65.8025   63.2891   49.3098 Z5         2 LUT      0.279246
    144 C6         66.5530   62.2227   49.4997 Z6         2 LUT     -0.305473
    145 C7         67.5926   61.7106   48.4684 Z7         2 LUT      0.069402
    146 C8         68.5938   62.3176   47.7570 Z8         2 LUT     -0.191631
    147 C9         69.1997   61.8026   46.5604 Z9         2 LUT      0.196698
    148 C10        70.0583   62.7171   45.9485 Y1         2 LUT     -0.208611
    149 C11        70.8104   62.6993   44.6945 Y2         2 LUT      0.030784
    150 C12        71.7195   63.6138   44.3588 Y3         2 LUT     -0.220316
    151 C13        72.5696   63.5973   43.1622 Y4         2 LUT      0.215937
    152 C14        73.6740   64.5212   43.1280 Y5         2 LUT     -0.185793
    153 C15        74.7956   64.4618   42.2548 Y6         2 LUT     -0.057835
    154 C16        65.9151   60.9903   51.6790 Y7         2 LUT     -0.405615
    155 C17        68.3743   61.4059   51.2696 Y7         2 LUT     -0.405615
    156 C18        65.7982   64.0967   48.0327 Y9         2 LUT     -0.369639
    157 C19        68.9486   60.4084   45.9593 W1         2 LUT     -0.333362
    158 C20        72.2145   62.7299   42.0554 W2         2 LUT     -0.323439
    159 C21        85.9571   65.7237   35.5766 Z1         2 LUT      0.406104
    160 C22        86.5650   65.2382   34.2291 Z2         2 LUT     -0.404965
    161 C23        86.5002   66.2900   33.1230 Z3         2 LUT      0.391255
    162 O23        86.6582   65.4184   31.9186 S1         2 LUT     -0.528210
    163 C24        85.1811   67.0064   33.0919 W6         2 LUT     -0.258361
    164 C25        84.2487   67.0547   34.0566 Z5         2 LUT      0.133546
    165 C26        84.4750   66.2341   35.3773 W8         2 LUT     -0.147008
    166 C27        83.8262   66.9685   36.5631 Z7         2 LUT      0.023843
    167 C28        82.7891   66.4499   37.2881 Z8         2 LUT     -0.216987
    168 C29        82.1394   66.8857   38.5429 Z9         2 LUT      0.206524
    169 C30        81.0451   66.1593   38.9015 Y1         2 LUT     -0.215556
    170 C31        80.2876   66.4920   40.1243 Y2         2 LUT      0.025142
    171 C32        79.0948   65.9101   40.3507 Y3         2 LUT     -0.212209
    172 C33        78.2422   66.0241   41.4760 Y4         2 LUT      0.240937
    173 C34        77.0784   65.2671   41.4789 Y5         2 LUT     -0.218862
    174 C35        75.9567   65.1937   42.4501 Y6         2 LUT     -0.023547
    175 C36        86.8719   66.8762   36.0986 Y7         2 LUT     -0.393485
    176 C37        85.9778   64.5627   36.5583 Y7         2 LUT     -0.393485
    177 C38        82.9494   67.7715   33.8087 Y9         2 LUT     -0.387526
    178 C39        82.6599   68.1493   39.2200 W1         2 LUT     -0.322618
    179 C40        78.5773   67.0766   42.4872 W2         2 LUT     -0.358472
    180 H403       77.9843   67.0519   43.4076 R7         2 LUT      0.097720
    181 H402       79.5898   66.9321   42.8491 R7         2 LUT      0.097720
    182 H401       78.5096   68.0704   42.2176 R7         2 LUT      0.097720
    183 H393       81.8591   68.7920   39.5104 R4         2 LUT      0.082505
    184 H392       83.2167   67.9208   40.1288 R4         2 LUT      0.082505
    185 H391       83.4160   68.7344   38.5792 R4         2 LUT      0.082505
    186 H383       82.9914   68.2885   32.8301 R1         2 LUT      0.104030
    187 H382       82.0438   67.0489   33.8784 R1         2 LUT      0.104030
    188 H381       82.8649   68.5441   34.6385 R1         2 LUT      0.104030
    189 H373       87.0241   64.2912   36.5901 T4         2 LUT      0.089537
    190 H372       85.7849   64.9109   37.5175 T4         2 LUT      0.089537
    191 H371       85.2823   63.7423   36.2764 T4         2 LUT      0.089537
    192 H363       87.8324   66.3980   36.4556 T4         2 LUT      0.089537
    193 H362       86.9804   67.6938   35.4179 T4         2 LUT      0.089537
    194 H361       86.4696   67.3229   37.0118 T4         2 LUT      0.089537
    195 H222       87.5710   64.8262   34.2136 U2         2 LUT      0.127376
    196 H221       85.9556   64.3259   33.9868 U2         2 LUT      0.127376
    197 H203       73.0311   62.2400   41.4743 R7         2 LUT      0.087068
    198 H202       71.6770   61.8695   42.2971 R7         2 LUT      0.087068
    199 H201       71.5563   63.2550   41.3039 R7         2 LUT      0.087068
    200 H193       68.9620   60.3656   44.8765 R4         2 LUT      0.089716
    201 H192       69.5735   59.6731   46.4185 R4         2 LUT      0.089716
    202 H191       67.9039   60.2114   46.2444 R4         2 LUT      0.089716
    203 H183       66.5564   64.8445   48.1647 R1         2 LUT      0.094572
    204 H182       66.0333   63.4916   47.1368 R1         2 LUT      0.094572
    205 H181       64.8184   64.6147   47.9673 R1         2 LUT      0.094572
    206 H173       68.6940   61.5448   52.3041 T4         2 LUT      0.093752
    207 H172       68.3907   60.2765   51.0557 T4         2 LUT      0.093752
    208 H171       69.0793   61.9266   50.6234 T4         2 LUT      0.093752
    209 H163       66.1451   60.0050   51.4390 T4         2 LUT      0.093752
    210 H162       65.9553   61.0291   52.7664 T4         2 LUT      0.093752
    211 H161       64.8571   61.1343   51.4466 T4         2 LUT      0.093752
    212 HO3        65.3969   65.8886   52.6590 Q1         2 LUT      0.300121
    213 H8         68.7359   63.3844   48.0815 U7         2 LUT      0.080784
    214 H7         67.3553   60.7037   48.0373 U6         2 LUT      0.042190
    215 H42        64.1519   63.3360   50.3551 U5         2 LUT      0.145166
    216 H41        64.5908   64.9631   50.1088 U5         2 LUT      0.145166
    217 H35        75.9755   65.7795   43.4271 T3         2 LUT      0.077919
    218 H34        76.8715   64.6060   40.6188 T2         2 LUT      0.073626
    219 H32        78.7633   65.1290   39.6470 T1         2 LUT      0.092510
    220 H31        80.6358   67.3024   40.7543 U9         2 LUT      0.070048
    221 H30        80.6626   65.3138   38.2683 U8         2 LUT      0.085442
    222 H3         64.9304   63.5361   52.3872 U3         2 LUT     -0.031596
    223 H28        82.3646   65.4666   36.9160 U7         2 LUT      0.084728
    224 H27        84.1045   68.0031   36.8927 U6         2 LUT      0.087291
    225 H26        83.7201   65.3300   35.2506 Q6         2 LUT      0.075325
    226 H24        85.0788   67.6409   32.2598 Q5         2 LUT      0.094482
    227 H23        87.4019   66.8888   33.2131 U3         2 LUT     -0.024869
    228 H22        67.0823   63.0372   52.9095 U2         2 LUT      0.127376
    229 H21        67.6956   63.8218   51.6099 U2         2 LUT      0.127376
    230 H15        74.5894   63.9009   41.3413 T3         2 LUT      0.093200
    231 H14        73.7815   65.0946   43.9905 T2         2 LUT      0.068865
    232 H12        71.9075   64.3464   45.1666 T1         2 LUT      0.095507
    233 H11        70.5820   61.8243   44.0520 U9         2 LUT      0.068930
    234 H10        70.2099   63.6947   46.4143 U8         2 LUT      0.083911
    235 H1         86.9341   65.9007   31.1751 Q1         2 LUT      0.297311
@<TRIPOS>BOND
    1     6     1 1
    2     7     2 1
    3     8     3 1
    4     9     4 1
    5    11     4 1
    6    12     6 1
    7    13     9 1
    8    16     9 1
    9    25     5 1
   10    25    16 1
   11    26    10 1
   12    26    17 1
   13    27    18 1
   14    28    14 1
   15    28    19 1
   16    29    12 1
   17    30    13 1
   18    31    24 1
   19    32     1 1
   20    32    25 1
   21    33    21 1
   22    33    26 1
   23    34    22 1
   24    34    27 1
   25    35    23 1
   26    35    28 1
   27    36    12 1
   28    36    24 1
   29    37    13 1
   30    37    15 1
   31    38    31 1
   32    39    20 1
   33    39    32 1
   34    40     2 1
   35    40    33 1
   36    41     3 1
   37    41    34 1
   38    42     4 1
   39    42    35 1
   40    43    38 1
   41    44     5 1
   42    44    17 1
   43    44    39 1
   44    45    10 1
   45    45    18 1
   46    45    40 1
   47    46    19 1
   48    46    41 1
   49    47    14 1
   50    47    16 1
   51    47    42 1
   52    48    38 1
   53    49    48 1
   54    50    49 1
   55    51    50 1
   56    52    51 1
   57    53    51 1
   58    54    53 1
   59    55    54 1
   60    56    55 1
   61    57    56 1
   62    58    56 1
   63    59    58 1
   64    60    59 1
   65    61    60 1
   66    62    61 1
   67    63    61 1
   68    64    27 1
   69    64    46 1
   70    65     5 1
   71    65    10 1
   72    65    64 1
   73    65    14 1
   74    66    23 1
   75    67    23 1
   76    68    23 1
   77    69    22 1
   78    70    22 1
   79    71    22 1
   80    72    21 1
   81    73    21 1
   82    74    21 1
   83    75    20 1
   84    76    20 1
   85    77    20 1
   86    78    15 1
   87    79    15 1
   88    80    15 1
   89    81     8 1
   90    82     8 1
   91    83     8 1
   92    84     7 1
   93    85     7 1
   94    86     6 1
   95    87     6 1
   96    88     3 1
   97    89     3 1
   98    90     1 1
   99    91     1 1
  100    92    63 1
  101    93    63 1
  102    94    63 1
  103    95    62 1
  104    96    62 1
  105    97    62 1
  106    98    60 1
  107    99    60 1
  108   100    59 1
  109   101    59 1
  110   102    58 1
  111   103    58 1
  112   104    57 1
  113   105    57 1
  114   106    57 1
  115   107    55 1
  116   108    55 1
  117   109    54 1
  118   110    54 1
  119   111    53 1
  120   112    53 1
  121   113    19 1
  122   114    18 1
  123   115    17 1
  124   116     9 1
  125   117     2 1
  126   118    52 1
  127   119    52 1
  128   120    52 1
  129   121    51 1
  130   122    50 1
  131   123    50 1
  132   124    49 1
  133   125    49 1
  134   126    48 1
  135   127    48 1
  136   128    43 1
  137   129    43 1
  138   130    43 1
  139   131    39 1
  140   132    32 1
  141   133    31 1
  142   134    61 1
  143   135    56 1
  144   136    24 1
  145   137    24 1
  146   139   138 1
  147   140   139 1
  148   141   140 1
  149   142   140 1
  150   143   142 1
  151   144   138 1
  152   144   143 1
  153   145   144 1
  154   146   145 1
  155   147   146 1
  156   148   147 1
  157   149   148 1
  158   150   149 1
  159   151   150 1
  160   152   151 1
  161   153   152 1
  162   154   138 1
  163   155   138 1
  164   156   143 1
  165   157   147 1
  166   158   151 1
  167   160   159 1
  168   161   160 1
  169   162   161 1
  170   163   161 1
  171   164   163 1
  172   165   159 1
  173   165   164 1
  174   166   165 1
  175   167   166 1
  176   168   167 1
  177   169   168 1
  178   170   169 1
  179   171   170 1
  180   172   171 1
  181   173   172 1
  182   174   153 1
  183   174   173 1
  184   175   159 1
  185   176   159 1
  186   177   164 1
  187   178   168 1
  188   179   172 1
  189   180   179 1
  190   181   179 1
  191   182   179 1
  192   183   178 1
  193   184   178 1
  194   185   178 1
  195   186   177 1
  196   187   177 1
  197   188   177 1
  198   189   176 1
  199   190   176 1
  200   191   176 1
  201   192   175 1
  202   193   175 1
  203   194   175 1
  204   195   160 1
  205   196   160 1
  206   197   158 1
  207   198   158 1
  208   199   158 1
  209   200   157 1
  210   201   157 1
  211   202   157 1
  212   203   156 1
  213   204   156 1
  214   205   156 1
  215   206   155 1
  216   207   155 1
  217   208   155 1
  218   209   154 1
  219   210   154 1
  220   211   154 1
  221   212   141 1
  222   213   146 1
  223   214   145 1
  224   215   142 1
  225   216   142 1
  226   217   174 1
  227   218   173 1
  228   219   171 1
  229   220   170 1
  230   221   169 1
  231   222   140 1
  232   223   167 1
  233   224   166 1
  234   225   165 1
  235   226   163 1
  236   227   161 1
  237   228   139 1
  238   229   139 1
  239   230   153 1
  240   231   152 1
  241   232   150 1
  242   233   149 1
  243   234   148 1
  244   235   162 1
  245   65    153 1
  246   65    174 1
@<TRIPOS>SUBSTRUCTURE
      1 CLA               1 ****               0 ****  **** 
      2 LUT             138 ****               0 ****  **** 
