@<TRIPOS>MOLECULE
Cpptraj generated mol2 file.
  235   246     2     0     0
SMALL
USER_CHARGES


@<TRIPOS>ATOM
      1 CAA        76.6399   57.5833   33.1092 a2         1 CLA     -0.055900
      2 CAB        77.4889   61.3260   42.2362 c8         1 CLA     -0.148500
      3 CAC        70.4662   57.6299   42.0559 a2         1 CLA     -0.012600
      4 CAD        72.4711   55.2523   34.7122 ck         1 CLA      0.398800
      5 NA         75.8912   58.0423   36.7139 ns         1 CLA     -0.225500
      6 CBA        77.8366   57.5222   32.1177 a2         1 CLA     -0.135000
      7 CBB        78.6736   61.3471   42.9614 c0         1 CLA     -0.395200
      8 CBC        70.3815   56.1190   41.7302 a3         1 CLA     -0.037700
      9 CBD        73.9920   55.5657   34.4060 a1         1 CLA     -0.053900
     10 NB         76.1332   59.5272   39.2513 nm         1 CLA     -0.295700
     11 OBD        71.7000   54.5750   34.0170 o2         1 CLA     -0.494600
     12 CGA        78.2937   56.0949   31.7413 c4         1 CLA      0.827000
     13 CGD        74.9632   54.3361   34.3291 c4         1 CLA      0.655300
     14 ND         73.0958   57.4062   37.4841 nm         1 CLA     -0.291600
     15 CED        75.4076   52.3518   35.6122 a3         1 CLA      0.005400
     16 CHA        74.4032   56.5583   35.4973 cs         1 CLA     -0.123800
     17 CHB        77.7541   59.3743   37.5449 aa         1 CLA     -0.291900
     18 CHC        74.8833   59.9459   41.3420 aa         1 CLA     -0.090400
     19 CHD        71.3583   57.5486   39.1422 aa         1 CLA     -0.052000
     20 CMA        79.2070   57.2344   35.7070 a3         1 CLA     -0.230700
     21 CMB        79.5802   60.9203   39.5496 a3         1 CLA     -0.180800
     22 CMC        72.7207   59.4282   43.5497 a3         1 CLA     -0.134000
     23 CMD        69.6621   55.8289   36.8693 a3         1 CLA     -0.141100
     24 C1         79.3634   54.1115   32.6069 a2         1 CLA      0.023000
     25 C1A        75.6370   57.2329   35.5795 ac         1 CLA     -0.015100
     26 C1B        77.3691   59.8272   38.8107 cr         1 CLA      0.054700
     27 C1C        73.6415   59.3249   41.1127 cn         1 CLA     -0.005600
     28 C1D        71.7982   57.1081   37.8541 ap         1 CLA     -0.047300
     29 O1A        78.0361   55.5267   30.6974 o2         1 CLA     -0.610800
     30 O1D        75.7895   54.0466   33.4744 o2         1 CLA     -0.558200
     31 C2         79.8071   53.5701   34.0040 c8         1 CLA     -0.325100
     32 C2A        76.9157   57.1779   34.6138 a1         1 CLA      0.098600
     33 C2B        78.1892   60.4410   39.8241 cb         1 CLA      0.088500
     34 C2C        72.6332   58.9961   42.1147 cb         1 CLA      0.053700
     35 C2D        71.1088   56.2933   36.8381 cb         1 CLA      0.058900
     36 O2A        78.9084   55.4612   32.8057 o1         1 CLA     -0.437200
     37 O2D        74.7485   53.6575   35.5111 o1         1 CLA     -0.357600
     38 C3         80.5295   52.4715   34.1979 c5         1 CLA      0.031200
     39 C3A        77.9338   57.9820   35.3940 a1         1 CLA      0.166800
     40 C3B        77.3102   60.5935   40.9546 cb         1 CLA      0.035000
     41 C3C        71.6788   58.2868   41.4584 cb         1 CLA     -0.089900
     42 C3D        72.1471   55.9862   35.9578 cb         1 CLA     -0.035900
     43 C4         79.8074   51.1600   34.2987 a3         1 CLA     -0.053300
     44 C4A        77.1146   58.4937   36.5970 ac         1 CLA      0.001800
     45 C4B        76.0257   60.0253   40.4990 cn         1 CLA     -0.020900
     46 C4C        72.0299   58.2473   40.1023 cr         1 CLA     -0.044400
     47 C4D        73.3074   56.7303   36.3525 c6         1 CLA     -0.046000
     48 C5         82.0368   52.4979   34.1314 a2         1 CLA     -0.070400
     49 C6         82.6877   53.8460   34.4964 a2         1 CLA      0.043900
     50 C7         82.7192   54.0924   36.0396 a2         1 CLA     -0.150000
     51 C8         83.5767   55.2859   36.5507 a1         1 CLA      0.064200
     52 C9         85.0585   55.1019   36.1034 a3         1 CLA     -0.259300
     53 C10        83.4685   55.3973   38.0808 a2         1 CLA     -0.071900
     54 C11        82.0995   55.6458   38.7776 a2         1 CLA      0.014500
     55 C12        82.2946   55.6405   40.2999 a2         1 CLA     -0.112100
     56 C13        81.0792   56.0550   41.1701 a1         1 CLA      0.089200
     57 C14        80.3936   57.4247   40.6561 a3         1 CLA     -0.239100
     58 C15        81.4181   56.0013   42.7402 a2         1 CLA     -0.102200
     59 C16        82.3646   57.1081   43.2854 a2         1 CLA      0.023900
     60 C17        82.4814   56.9542   44.7798 a2         1 CLA     -0.105700
     61 C18        83.3863   57.9393   45.5412 a1         1 CLA      0.206800
     62 C19        84.8674   57.9804   45.0835 a3         1 CLA     -0.280100
     63 C20        82.7217   59.3517   45.6930 a3         1 CLA     -0.280100
     64 NC         73.3059   58.7607   39.9153 nx         1 CLA     -0.309200
     65 MG         74.5166   58.5976   38.2985 mg         1 CLA      0.895000
     66 HMD3       69.3451   55.2114   36.0923 dc         1 CLA      0.064300
     67 HMD2       69.5462   55.3100   37.8167 dc         1 CLA      0.064300
     68 HMD1       68.9646   56.6382   36.9653 dc         1 CLA      0.064300
     69 HMC3       73.0218   60.5086   43.5930 dc         1 CLA      0.052100
     70 HMC2       71.7891   59.1005   44.0418 dc         1 CLA      0.052100
     71 HMC1       73.5074   58.7863   44.0032 dc         1 CLA      0.052100
     72 HMB3       80.2200   60.1329   39.8073 dc         1 CLA      0.063600
     73 HMB2       79.6357   61.2474   38.5245 dc         1 CLA      0.063600
     74 HMB1       79.6959   61.7263   40.2474 dc         1 CLA      0.063600
     75 HMA3       79.6103   56.8356   34.7746 dc         1 CLA      0.058300
     76 HMA2       80.0094   57.8784   36.0579 dc         1 CLA      0.058300
     77 HMA1       79.0094   56.3265   36.3259 dc         1 CLA      0.058300
     78 HED3       75.1947   51.6540   34.8236 dc         1 CLA      0.079300
     79 HED2       76.4659   52.5713   35.7294 dc         1 CLA      0.079300
     80 HED1       74.9996   51.9402   36.5048 dc         1 CLA      0.079300
     81 HBC3       69.7336   55.5604   42.4644 dc         1 CLA      0.016300
     82 HBC2       69.8982   55.8170   40.8083 dc         1 CLA      0.016300
     83 HBC1       71.4173   55.7494   41.7547 dc         1 CLA      0.016300
     84 HBB2       78.7172   61.6612   43.9556 da         1 CLA      0.183000
     85 HBB1       79.6150   60.7984   42.6001 da         1 CLA      0.183000
     86 HBA2       77.4281   58.0538   31.2170 dc         1 CLA      0.029400
     87 HBA1       78.6533   58.0958   32.4740 dc         1 CLA      0.029400
     88 HAC2       70.6379   57.6126   43.1213 dc         1 CLA      0.029300
     89 HAC1       69.6042   58.1273   41.7022 dc         1 CLA      0.029300
     90 HAA2       75.8449   56.9524   32.6728 dc         1 CLA      0.028700
     91 HAA1       76.4137   58.6778   33.0465 dc         1 CLA      0.028700
     92 H203       83.2450   59.9923   46.3713 dc         1 CLA      0.065600
     93 H202       82.5709   59.8088   44.6921 dc         1 CLA      0.065600
     94 H201       81.6984   59.2608   46.1209 dc         1 CLA      0.065600
     95 H193       84.9109   58.4925   44.1843 dc         1 CLA      0.065600
     96 H192       85.4330   58.4154   45.9049 dc         1 CLA      0.065600
     97 H191       85.2185   56.9943   44.9395 dc         1 CLA      0.065600
     98 H172       81.5366   56.9881   45.3852 dc         1 CLA      0.027600
     99 H171       82.8336   55.9280   44.9653 dc         1 CLA      0.027600
    100 H162       83.4061   57.0015   42.8478 dc         1 CLA      0.002900
    101 H161       82.0306   58.1142   43.0623 dc         1 CLA      0.002900
    102 H152       80.4619   55.9949   43.2573 dc         1 CLA      0.029100
    103 H151       81.8458   55.0134   42.9752 dc         1 CLA      0.029100
    104 H143       79.7450   57.8662   41.3079 dc         1 CLA      0.063600
    105 H142       81.1749   58.0784   40.4717 dc         1 CLA      0.063600
    106 H141       79.8076   57.2403   39.7350 dc         1 CLA      0.063600
    107 H122       82.5960   54.6093   40.5513 dc         1 CLA      0.032500
    108 H121       83.1539   56.3135   40.5630 dc         1 CLA      0.032500
    109 H112       81.7288   56.6106   38.3889 dc         1 CLA      0.006600
    110 H111       81.3148   54.8895   38.5135 dc         1 CLA      0.006600
    111 H102       83.9850   54.5304   38.4553 dc         1 CLA      0.024100
    112 H101       84.2214   56.1767   38.3446 dc         1 CLA      0.024100
    113 HHD        70.3340   57.3008   39.2510 da         1 CLA      0.174300
    114 HHC        75.0183   60.3676   42.3574 da         1 CLA      0.136800
    115 HHB        78.8628   59.5782   37.3353 da         1 CLA      0.138300
    116 HBD        73.9546   56.0099   33.4127 dc         1 CLA      0.107700
    117 HAB        76.6209   61.8362   42.6720 da         1 CLA      0.155200
    118 H93        85.1684   55.3005   35.0153 dc         1 CLA      0.069500
    119 H92        85.6963   55.8715   36.5180 dc         1 CLA      0.069500
    120 H91        85.5008   54.1427   36.4529 dc         1 CLA      0.069500
    121 H8         83.2151   56.2901   36.1513 dc         1 CLA      0.029300
    122 H72        81.6909   54.1253   36.4137 dc         1 CLA      0.044400
    123 H71        83.1059   53.1983   36.5663 dc         1 CLA      0.044400
    124 H62        83.7419   53.7669   34.0584 dc         1 CLA      0.015600
    125 H61        82.2658   54.7263   33.9640 dc         1 CLA      0.015600
    126 H52        82.3771   51.7328   34.8289 dc         1 CLA      0.033200
    127 H51        82.3033   52.1155   33.1344 dc         1 CLA      0.033200
    128 H43        79.9078   50.9443   35.3536 dc         1 CLA      0.037000
    129 H42        78.8151   51.2651   33.9530 dc         1 CLA      0.037000
    130 H41        80.3537   50.4496   33.6350 dc         1 CLA      0.037000
    131 H3A        78.1525   58.7874   34.6629 dc         1 CLA      0.041100
    132 H2A        77.3967   56.2181   34.4768 dc         1 CLA      0.083100
    133 H2         79.6383   54.1598   34.8879 da         1 CLA      0.180900
    134 H18        83.5616   57.5477   46.5675 dc         1 CLA     -0.003900
    135 H13        80.3800   55.3252   40.9995 dc         1 CLA      0.019700
    136 H12        78.4878   53.5537   32.1960 dc         1 CLA      0.120400
    137 H11        80.2006   54.2259   31.8313 dc         1 CLA      0.120400
    138 C1         67.3637   61.0672   49.5198 Z1         2 LUT      0.509236
    139 C2         67.5023   62.3701   50.2976 Z2         2 LUT     -0.434695
    140 C3         66.2778   63.2808   50.3300 Z3         2 LUT      0.437453
    141 O3         66.5887   64.6421   50.5852 S1         2 LUT     -0.547129
    142 C4         65.5053   63.1081   49.0182 Z4         2 LUT     -0.468603
    143 C5         66.1608   62.3720   47.8630 Z5         2 LUT      0.279246
    144 C6         67.0216   61.3371   48.0120 Z6         2 LUT     -0.305473
    145 C7         67.8646   60.9053   46.9009 Z7         2 LUT      0.069402
    146 C8         68.6682   61.7537   46.1576 Z8         2 LUT     -0.191631
    147 C9         69.2285   61.4455   44.7971 Z9         2 LUT      0.196698
    148 C10        70.1679   62.3429   44.3492 Y1         2 LUT     -0.208611
    149 C11        70.7790   62.2158   43.0132 Y2         2 LUT      0.030784
    150 C12        71.8447   62.8810   42.5925 Y3         2 LUT     -0.220316
    151 C13        72.5361   62.7549   41.3666 Y4         2 LUT      0.215937
    152 C14        73.6458   63.5348   41.1547 Y5         2 LUT     -0.185793
    153 C15        74.6157   63.3015   40.1081 Y6         2 LUT     -0.057835
    154 C16        66.2077   60.2406   50.2242 Y7         2 LUT     -0.405615
    155 C17        68.6886   60.3242   49.9093 Y7         2 LUT     -0.405615
    156 C18        65.8344   63.1968   46.6307 Y9         2 LUT     -0.369639
    157 C19        68.6720   60.3304   43.9408 W1         2 LUT     -0.333362
    158 C20        71.7456   62.2051   40.1819 W2         2 LUT     -0.323439
    159 C21        86.1888   64.3155   33.9639 Z1         2 LUT      0.406104
    160 C22        86.9162   63.9139   32.6395 Z2         2 LUT     -0.404965
    161 C23        86.9850   64.9760   31.5253 Z3         2 LUT      0.391255
    162 O23        87.6137   64.2535   30.4306 S1         2 LUT     -0.528210
    163 C24        85.6952   65.7496   31.3852 W6         2 LUT     -0.258361
    164 C25        84.6414   65.7168   32.1861 Z5         2 LUT      0.133546
    165 C26        84.7625   64.9286   33.5563 W8         2 LUT     -0.147008
    166 C27        84.0543   65.4753   34.7171 Z7         2 LUT      0.023843
    167 C28        82.7834   65.1161   35.0697 Z8         2 LUT     -0.216987
    168 C29        81.9988   65.6090   36.1602 Z9         2 LUT      0.206524
    169 C30        80.9201   64.8134   36.5934 Y1         2 LUT     -0.215556
    170 C31        80.1404   65.0109   37.8399 Y2         2 LUT      0.025142
    171 C32        78.9181   64.4216   38.0999 Y3         2 LUT     -0.212209
    172 C33        78.0076   64.5750   39.2713 Y4         2 LUT      0.240937
    173 C34        76.8567   63.8583   39.2745 Y5         2 LUT     -0.218862
    174 C35        75.8117   63.9043   40.2134 Y6         2 LUT     -0.023547
    175 C36        87.1841   65.3334   34.6393 Y7         2 LUT     -0.393485
    176 C37        86.0681   63.0748   34.9780 Y7         2 LUT     -0.393485
    177 C38        83.3375   66.5238   32.0090 Y9         2 LUT     -0.387526
    178 C39        82.5161   66.6494   37.1569 W1         2 LUT     -0.322618
    179 C40        78.5733   65.2341   40.4336 W2         2 LUT     -0.358472
    180 H403       79.6619   65.0672   40.6175 R7         2 LUT      0.097720
    181 H402       78.3797   66.3253   40.3347 R7         2 LUT      0.097720
    182 H401       78.0347   64.9915   41.3283 R7         2 LUT      0.097720
    183 H393       83.0053   66.0888   37.9163 R4         2 LUT      0.082505
    184 H392       83.1752   67.4273   36.7681 R4         2 LUT      0.082505
    185 H391       81.7099   67.2067   37.5936 R4         2 LUT      0.082505
    186 H383       82.4451   65.9067   31.7539 R1         2 LUT      0.104030
    187 H382       83.0998   67.0705   32.9335 R1         2 LUT      0.104030
    188 H381       83.4988   67.2395   31.2286 R1         2 LUT      0.104030
    189 H373       85.4038   62.3248   34.5872 T4         2 LUT      0.089537
    190 H372       86.9983   62.6394   35.2661 T4         2 LUT      0.089537
    191 H371       85.4966   63.3392   35.8952 T4         2 LUT      0.089537
    192 H363       88.1868   64.9141   34.8724 T4         2 LUT      0.089537
    193 H362       87.2511   66.2754   34.0407 T4         2 LUT      0.089537
    194 H361       86.9184   65.6933   35.7116 T4         2 LUT      0.089537
    195 H222       87.9291   63.4638   32.7445 U2         2 LUT      0.127376
    196 H221       86.4375   63.1474   32.0428 U2         2 LUT      0.127376
    197 H203       72.0254   62.7120   39.2755 R7         2 LUT      0.087068
    198 H202       71.8920   61.1092   39.9797 R7         2 LUT      0.087068
    199 H201       70.7162   62.3145   40.2829 R7         2 LUT      0.087068
    200 H193       69.1496   60.2434   43.0223 R4         2 LUT      0.089716
    201 H192       68.8061   59.3925   44.4391 R4         2 LUT      0.089716
    202 H191       67.5675   60.3476   43.7965 R4         2 LUT      0.089716
    203 H183       64.8263   63.1643   46.2997 R1         2 LUT      0.094572
    204 H182       66.1915   64.1894   46.7887 R1         2 LUT      0.094572
    205 H181       66.3817   62.7207   45.8243 R1         2 LUT      0.094572
    206 H173       69.4912   60.9141   49.5009 T4         2 LUT      0.093752
    207 H172       68.7239   60.2778   50.9717 T4         2 LUT      0.093752
    208 H171       68.7871   59.2970   49.4746 T4         2 LUT      0.093752
    209 H163       66.4848   60.3886   51.2758 T4         2 LUT      0.093752
    210 H162       65.1920   60.5650   49.9149 T4         2 LUT      0.093752
    211 H161       66.3279   59.1726   50.0332 T4         2 LUT      0.093752
    212 HO3        66.0263   64.9669   51.2602 Q1         2 LUT      0.300121
    213 H8         68.7345   62.7702   46.3610 U7         2 LUT      0.080784
    214 H7         67.7774   59.9122   46.4308 U6         2 LUT      0.042190
    215 H42        64.6181   62.4773   49.1939 U5         2 LUT      0.145166
    216 H41        64.9746   63.9787   48.7304 U5         2 LUT      0.145166
    217 H35        76.0033   64.5127   41.1725 T3         2 LUT      0.077919
    218 H34        76.5869   63.3018   38.3898 T2         2 LUT      0.073626
    219 H32        78.6420   63.6911   37.3430 T1         2 LUT      0.092510
    220 H31        80.6100   65.6746   38.5441 U9         2 LUT      0.070048
    221 H30        80.6512   63.9738   35.9821 U8         2 LUT      0.085442
    222 H3         65.6001   62.8073   51.0352 U3         2 LUT     -0.031596
    223 H28        82.3277   64.2698   34.5931 U7         2 LUT      0.084728
    224 H27        84.6055   66.2558   35.2528 U6         2 LUT      0.087291
    225 H26        84.2487   64.0468   33.2162 Q6         2 LUT      0.075325
    226 H24        85.5783   66.3496   30.4860 Q5         2 LUT      0.094482
    227 H23        87.7199   65.7483   31.7608 U3         2 LUT     -0.024869
    228 H22        67.6914   62.1072   51.3415 U2         2 LUT      0.127376
    229 H21        68.3240   62.9403   49.8456 U2         2 LUT      0.127376
    230 H15        74.4124   62.6724   39.2247 T3         2 LUT      0.093200
    231 H14        73.9144   64.2783   41.9683 T2         2 LUT      0.068865
    232 H12        72.2243   63.6270   43.3169 T1         2 LUT      0.095507
    233 H11        70.3643   61.5298   42.3286 U9         2 LUT      0.068930
    234 H10        70.4949   63.1825   44.9893 U8         2 LUT      0.083911
    235 H1         87.0062   64.1062   29.6546 Q1         2 LUT      0.297311
@<TRIPOS>BOND
    1     6     1 1
    2     7     2 1
    3     8     3 1
    4     9     4 1
    5    11     4 1
    6    12     6 1
    7    13     9 1
    8    16     9 1
    9    25     5 1
   10    25    16 1
   11    26    10 1
   12    26    17 1
   13    27    18 1
   14    28    14 1
   15    28    19 1
   16    29    12 1
   17    30    13 1
   18    31    24 1
   19    32     1 1
   20    32    25 1
   21    33    21 1
   22    33    26 1
   23    34    22 1
   24    34    27 1
   25    35    23 1
   26    35    28 1
   27    36    12 1
   28    36    24 1
   29    37    13 1
   30    37    15 1
   31    38    31 1
   32    39    20 1
   33    39    32 1
   34    40     2 1
   35    40    33 1
   36    41     3 1
   37    41    34 1
   38    42     4 1
   39    42    35 1
   40    43    38 1
   41    44     5 1
   42    44    17 1
   43    44    39 1
   44    45    10 1
   45    45    18 1
   46    45    40 1
   47    46    19 1
   48    46    41 1
   49    47    14 1
   50    47    16 1
   51    47    42 1
   52    48    38 1
   53    49    48 1
   54    50    49 1
   55    51    50 1
   56    52    51 1
   57    53    51 1
   58    54    53 1
   59    55    54 1
   60    56    55 1
   61    57    56 1
   62    58    56 1
   63    59    58 1
   64    60    59 1
   65    61    60 1
   66    62    61 1
   67    63    61 1
   68    64    27 1
   69    64    46 1
   70    65     5 1
   71    65    10 1
   72    65    64 1
   73    65    14 1
   74    66    23 1
   75    67    23 1
   76    68    23 1
   77    69    22 1
   78    70    22 1
   79    71    22 1
   80    72    21 1
   81    73    21 1
   82    74    21 1
   83    75    20 1
   84    76    20 1
   85    77    20 1
   86    78    15 1
   87    79    15 1
   88    80    15 1
   89    81     8 1
   90    82     8 1
   91    83     8 1
   92    84     7 1
   93    85     7 1
   94    86     6 1
   95    87     6 1
   96    88     3 1
   97    89     3 1
   98    90     1 1
   99    91     1 1
  100    92    63 1
  101    93    63 1
  102    94    63 1
  103    95    62 1
  104    96    62 1
  105    97    62 1
  106    98    60 1
  107    99    60 1
  108   100    59 1
  109   101    59 1
  110   102    58 1
  111   103    58 1
  112   104    57 1
  113   105    57 1
  114   106    57 1
  115   107    55 1
  116   108    55 1
  117   109    54 1
  118   110    54 1
  119   111    53 1
  120   112    53 1
  121   113    19 1
  122   114    18 1
  123   115    17 1
  124   116     9 1
  125   117     2 1
  126   118    52 1
  127   119    52 1
  128   120    52 1
  129   121    51 1
  130   122    50 1
  131   123    50 1
  132   124    49 1
  133   125    49 1
  134   126    48 1
  135   127    48 1
  136   128    43 1
  137   129    43 1
  138   130    43 1
  139   131    39 1
  140   132    32 1
  141   133    31 1
  142   134    61 1
  143   135    56 1
  144   136    24 1
  145   137    24 1
  146   139   138 1
  147   140   139 1
  148   141   140 1
  149   142   140 1
  150   143   142 1
  151   144   138 1
  152   144   143 1
  153   145   144 1
  154   146   145 1
  155   147   146 1
  156   148   147 1
  157   149   148 1
  158   150   149 1
  159   151   150 1
  160   152   151 1
  161   153   152 1
  162   154   138 1
  163   155   138 1
  164   156   143 1
  165   157   147 1
  166   158   151 1
  167   160   159 1
  168   161   160 1
  169   162   161 1
  170   163   161 1
  171   164   163 1
  172   165   159 1
  173   165   164 1
  174   166   165 1
  175   167   166 1
  176   168   167 1
  177   169   168 1
  178   170   169 1
  179   171   170 1
  180   172   171 1
  181   173   172 1
  182   174   153 1
  183   174   173 1
  184   175   159 1
  185   176   159 1
  186   177   164 1
  187   178   168 1
  188   179   172 1
  189   180   179 1
  190   181   179 1
  191   182   179 1
  192   183   178 1
  193   184   178 1
  194   185   178 1
  195   186   177 1
  196   187   177 1
  197   188   177 1
  198   189   176 1
  199   190   176 1
  200   191   176 1
  201   192   175 1
  202   193   175 1
  203   194   175 1
  204   195   160 1
  205   196   160 1
  206   197   158 1
  207   198   158 1
  208   199   158 1
  209   200   157 1
  210   201   157 1
  211   202   157 1
  212   203   156 1
  213   204   156 1
  214   205   156 1
  215   206   155 1
  216   207   155 1
  217   208   155 1
  218   209   154 1
  219   210   154 1
  220   211   154 1
  221   212   141 1
  222   213   146 1
  223   214   145 1
  224   215   142 1
  225   216   142 1
  226   217   174 1
  227   218   173 1
  228   219   171 1
  229   220   170 1
  230   221   169 1
  231   222   140 1
  232   223   167 1
  233   224   166 1
  234   225   165 1
  235   226   163 1
  236   227   161 1
  237   228   139 1
  238   229   139 1
  239   230   153 1
  240   231   152 1
  241   232   150 1
  242   233   149 1
  243   234   148 1
  244   235   162 1
  245   65    153 1
  246   65    174 1
@<TRIPOS>SUBSTRUCTURE
      1 CLA               1 ****               0 ****  **** 
      2 LUT             138 ****               0 ****  **** 
