@<TRIPOS>MOLECULE
Cpptraj generated mol2 file.
  235   246     2     0     0
SMALL
USER_CHARGES


@<TRIPOS>ATOM
      1 CAA        79.9497   59.0246   34.0131 a2         1 CLA     -0.055900
      2 CAB        79.6043   62.6605   43.1579 c8         1 CLA     -0.148500
      3 CAC        72.7545   58.4923   42.5234 a2         1 CLA     -0.012600
      4 CAD        75.7097   56.5773   35.0462 ck         1 CLA      0.398800
      5 NA         78.8723   59.2822   37.4888 ns         1 CLA     -0.225500
      6 CBA        81.2742   58.7745   33.2658 a2         1 CLA     -0.135000
      7 CBB        80.6905   63.0149   43.8516 c0         1 CLA     -0.395200
      8 CBC        72.7762   57.6002   43.8058 a3         1 CLA     -0.037700
      9 CBD        77.1615   57.0938   34.8230 a1         1 CLA     -0.053900
     10 NB         78.6656   60.7263   40.1344 nm         1 CLA     -0.295700
     11 OBD        75.1629   55.8524   34.2357 o2         1 CLA     -0.494600
     12 CGA        81.5561   57.2825   32.9759 c4         1 CLA      0.827000
     13 CGD        78.1272   55.9355   34.6159 c4         1 CLA      0.655300
     14 ND         76.0283   58.5296   37.9786 nm         1 CLA     -0.291600
     15 CED        79.3361   54.2089   35.9046 a3         1 CLA      0.005400
     16 CHA        77.5098   57.9638   36.0554 cs         1 CLA     -0.123800
     17 CHB        80.6214   60.6087   38.6075 aa         1 CLA     -0.291900
     18 CHC        77.2737   60.8992   42.1346 aa         1 CLA     -0.090400
     19 CHD        74.1222   58.1733   39.5637 aa         1 CLA     -0.052000
     20 CMA        82.2827   58.6891   36.7595 a3         1 CLA     -0.230700
     21 CMB        81.7614   62.6764   40.4455 a3         1 CLA     -0.180800
     22 CMC        74.9340   60.3276   44.1739 a3         1 CLA     -0.134000
     23 CMD        72.9119   56.4689   37.0930 a3         1 CLA     -0.141100
     24 C1         82.4847   55.2503   34.0468 a2         1 CLA      0.023000
     25 C1A        78.7514   58.6006   36.3281 ac         1 CLA     -0.015100
     26 C1B        79.9780   61.0879   39.7453 cr         1 CLA      0.054700
     27 C1C        76.1114   60.1767   41.8270 cn         1 CLA     -0.005600
     28 C1D        74.7059   58.0121   38.3047 ap         1 CLA     -0.047300
     29 O1A        81.0039   56.6009   32.1561 o2         1 CLA     -0.610800
     30 O1D        78.8596   55.7455   33.6448 o2         1 CLA     -0.558200
     31 C2         83.1230   55.1082   35.3929 c8         1 CLA     -0.325100
     32 C2A        80.0652   58.5846   35.5295 a1         1 CLA      0.098600
     33 C2B        80.5035   61.9421   40.7706 cb         1 CLA      0.088500
     34 C2C        74.9918   59.8746   42.7025 cb         1 CLA      0.053700
     35 C2D        74.1475   57.3234   37.1708 cb         1 CLA      0.058900
     36 O2A        82.3223   56.7365   34.0100 o1         1 CLA     -0.437200
     37 O2D        78.1456   55.1186   35.7625 o1         1 CLA     -0.357600
     38 C3         84.2700   54.4516   35.4432 c5         1 CLA      0.031200
     39 C3A        81.0174   59.4424   36.3987 a1         1 CLA      0.166800
     40 C3B        79.5959   61.9424   41.8583 cb         1 CLA      0.035000
     41 C3C        74.0700   59.0774   41.9795 cb         1 CLA     -0.089900
     42 C3D        75.2300   57.2270   36.2981 cb         1 CLA     -0.035900
     43 C4         84.3238   52.9915   35.8117 a3         1 CLA     -0.053300
     44 C4A        80.1193   59.7788   37.6177 ac         1 CLA      0.001800
     45 C4B        78.4824   61.0948   41.4018 cn         1 CLA     -0.020900
     46 C4C        74.6695   58.9502   40.6295 cr         1 CLA     -0.044400
     47 C4D        76.3096   58.0160   36.8129 c6         1 CLA     -0.046000
     48 C5         85.5119   55.1292   35.2708 a2         1 CLA     -0.070400
     49 C6         85.8808   56.0635   36.4031 a2         1 CLA      0.043900
     50 C7         87.3406   56.5649   36.2839 a2         1 CLA     -0.150000
     51 C8         87.7725   57.3699   37.4799 a1         1 CLA      0.064200
     52 C9         88.9244   58.3845   37.1624 a3         1 CLA     -0.259300
     53 C10        88.0230   56.5889   38.8122 a2         1 CLA     -0.071900
     54 C11        87.7381   57.4109   40.1521 a2         1 CLA      0.014500
     55 C12        87.7902   56.5202   41.4548 a2         1 CLA     -0.112100
     56 C13        87.7484   57.3480   42.8065 a1         1 CLA      0.089200
     57 C14        89.0104   58.2179   42.9580 a3         1 CLA     -0.239100
     58 C15        87.3754   56.3535   43.9960 a2         1 CLA     -0.102200
     59 C16        86.9375   56.9386   45.3742 a2         1 CLA      0.023900
     60 C17        88.1114   57.0528   46.3613 a2         1 CLA     -0.105700
     61 C18        87.7698   57.7757   47.6675 a1         1 CLA      0.206800
     62 C19        86.6927   57.1785   48.5713 a3         1 CLA     -0.280100
     63 C20        89.1154   57.8755   48.4337 a3         1 CLA     -0.280100
     64 NC         75.9217   59.5948   40.5643 nx         1 CLA     -0.309200
     65 MG         77.3651   59.6630   38.9153 mg         1 CLA      0.895000
     66 HMD3       72.7001   55.9539   37.9727 dc         1 CLA      0.064300
     67 HMD2       72.0898   57.2065   37.0799 dc         1 CLA      0.064300
     68 HMD1       73.0475   55.6577   36.2927 dc         1 CLA      0.064300
     69 HMC3       75.0894   61.3730   44.2542 dc         1 CLA      0.052100
     70 HMC2       73.9864   59.9606   44.6022 dc         1 CLA      0.052100
     71 HMC1       75.8058   59.7978   44.6991 dc         1 CLA      0.052100
     72 HMB3       81.6710   63.0879   39.4612 dc         1 CLA      0.063600
     73 HMB2       81.8384   63.5569   41.0786 dc         1 CLA      0.063600
     74 HMB1       82.6194   62.0221   40.6423 dc         1 CLA      0.063600
     75 HMA3       82.1371   57.7761   37.3682 dc         1 CLA      0.058300
     76 HMA2       82.8871   58.3334   35.9290 dc         1 CLA      0.058300
     77 HMA1       82.8844   59.3811   37.3718 dc         1 CLA      0.058300
     78 HED3       79.5594   53.5319   35.1160 dc         1 CLA      0.079300
     79 HED2       80.2242   54.7466   36.2543 dc         1 CLA      0.079300
     80 HED1       79.2178   53.6590   36.8236 dc         1 CLA      0.079300
     81 HBC3       73.3870   58.0342   44.6376 dc         1 CLA      0.016300
     82 HBC2       71.7179   57.4135   44.0555 dc         1 CLA      0.016300
     83 HBC1       73.3216   56.6512   43.7891 dc         1 CLA      0.016300
     84 HBB2       80.4892   63.5404   44.7848 da         1 CLA      0.183000
     85 HBB1       81.6961   62.7855   43.5691 da         1 CLA      0.183000
     86 HBA2       81.3562   59.2604   32.3225 dc         1 CLA      0.029400
     87 HBA1       82.0925   59.2429   33.8064 dc         1 CLA      0.029400
     88 HAC2       72.1817   59.3568   42.8321 dc         1 CLA      0.029300
     89 HAC1       72.1391   58.0105   41.6693 dc         1 CLA      0.029300
     90 HAA2       79.0903   58.5615   33.6699 dc         1 CLA      0.028700
     91 HAA1       79.8188   60.1076   34.0073 dc         1 CLA      0.028700
     92 H203       89.0041   58.5171   49.3298 dc         1 CLA      0.065600
     93 H202       89.5996   56.9202   48.7670 dc         1 CLA      0.065600
     94 H201       89.9943   58.2288   47.8600 dc         1 CLA      0.065600
     95 H193       86.6872   57.5136   49.5808 dc         1 CLA      0.065600
     96 H192       85.5946   57.1590   48.1679 dc         1 CLA      0.065600
     97 H191       87.0818   56.1267   48.6365 dc         1 CLA      0.065600
     98 H172       88.4333   56.0540   46.7027 dc         1 CLA      0.027600
     99 H171       88.9810   57.5206   45.9607 dc         1 CLA      0.027600
    100 H162       86.6319   57.9823   45.2528 dc         1 CLA      0.002900
    101 H161       86.1415   56.3505   45.8843 dc         1 CLA      0.002900
    102 H152       86.6105   55.6171   43.7432 dc         1 CLA      0.029100
    103 H151       88.3097   55.8178   44.0837 dc         1 CLA      0.029100
    104 H143       88.8473   58.8413   43.8483 dc         1 CLA      0.063600
    105 H142       89.8626   57.5020   43.1284 dc         1 CLA      0.063600
    106 H141       89.1940   58.7682   42.0229 dc         1 CLA      0.063600
    107 H122       87.0987   55.6544   41.4202 dc         1 CLA      0.032500
    108 H121       88.7111   56.0520   41.3908 dc         1 CLA      0.032500
    109 H112       88.3002   58.3390   40.0736 dc         1 CLA      0.006600
    110 H111       86.7260   57.7487   40.0751 dc         1 CLA      0.006600
    111 H102       87.5384   55.5845   38.8004 dc         1 CLA      0.024100
    112 H101       89.1542   56.4833   38.8639 dc         1 CLA      0.024100
    113 HHD        73.0772   57.9720   39.6413 da         1 CLA      0.174300
    114 HHC        77.2636   61.2697   43.2096 da         1 CLA      0.136800
    115 HHB        81.6049   60.9140   38.4769 da         1 CLA      0.138300
    116 HBD        77.0422   57.7380   33.9250 dc         1 CLA      0.107700
    117 HAB        78.6302   62.9518   43.5819 da         1 CLA      0.155200
    118 H93        89.2538   58.9387   37.9996 dc         1 CLA      0.069500
    119 H92        89.7592   57.8099   36.7531 dc         1 CLA      0.069500
    120 H91        88.6247   59.0079   36.2883 dc         1 CLA      0.069500
    121 H8         86.9005   57.9952   37.7193 dc         1 CLA      0.029300
    122 H72        88.0035   55.7240   36.1556 dc         1 CLA      0.044400
    123 H71        87.3743   57.0485   35.3138 dc         1 CLA      0.044400
    124 H62        85.2575   56.9217   36.3764 dc         1 CLA      0.015600
    125 H61        85.7108   55.5531   37.3129 dc         1 CLA      0.015600
    126 H52        86.2931   54.4469   35.1838 dc         1 CLA      0.033200
    127 H51        85.5028   55.8117   34.3833 dc         1 CLA      0.033200
    128 H43        83.3350   52.5249   35.8475 dc         1 CLA      0.037000
    129 H42        84.6647   52.5333   34.9181 dc         1 CLA      0.037000
    130 H41        84.9832   52.7614   36.7030 dc         1 CLA      0.037000
    131 H3A        81.2479   60.4276   35.8255 dc         1 CLA      0.041100
    132 H2A        80.4719   57.5898   35.5374 dc         1 CLA      0.083100
    133 H2         82.7817   55.5805   36.3194 da         1 CLA      0.180900
    134 H18        87.4609   58.7641   47.4132 dc         1 CLA     -0.003900
    135 H13        86.9185   57.9981   42.7186 dc         1 CLA      0.019700
    136 H12        81.4845   54.7170   34.0219 dc         1 CLA      0.120400
    137 H11        83.1572   54.7860   33.3342 dc         1 CLA      0.120400
    138 C1         68.8153   62.1271   50.0380 Z1         2 LUT      0.509236
    139 C2         68.6644   63.3272   50.9012 Z2         2 LUT     -0.434695
    140 C3         67.3778   64.0365   51.0390 Z3         2 LUT      0.437453
    141 O3         67.7464   65.2724   51.6914 S1         2 LUT     -0.547129
    142 C4         66.8017   64.2301   49.6362 Z4         2 LUT     -0.468603
    143 C5         67.5965   63.6256   48.5049 Z5         2 LUT      0.279246
    144 C6         68.4271   62.5257   48.6329 Z6         2 LUT     -0.305473
    145 C7         69.3729   62.0256   47.5422 Z7         2 LUT      0.069402
    146 C8         70.3711   62.5984   46.8576 Z8         2 LUT     -0.191631
    147 C9         71.0741   62.1189   45.5976 Z9         2 LUT      0.196698
    148 C10        71.9638   62.9368   44.9010 Y1         2 LUT     -0.208611
    149 C11        72.6414   62.9083   43.6242 Y2         2 LUT      0.030784
    150 C12        73.8016   63.6063   43.3379 Y3         2 LUT     -0.220316
    151 C13        74.6596   63.5514   42.2068 Y4         2 LUT      0.215937
    152 C14        75.8569   64.3202   42.2833 Y5         2 LUT     -0.185793
    153 C15        76.8669   64.4499   41.2795 Y6         2 LUT     -0.057835
    154 C16        67.7770   61.2229   50.7099 Y7         2 LUT     -0.405615
    155 C17        70.1979   61.5069   50.2084 Y7         2 LUT     -0.405615
    156 C18        67.5852   64.5161   47.2379 Y9         2 LUT     -0.369639
    157 C19        70.6659   60.7984   45.0668 W1         2 LUT     -0.333362
    158 C20        74.1135   62.9369   40.9697 W2         2 LUT     -0.323439
    159 C21        88.5249   66.1414   35.4319 Z1         2 LUT      0.406104
    160 C22        89.2033   65.4871   34.2228 Z2         2 LUT     -0.404965
    161 C23        89.1091   66.3557   32.9375 Z3         2 LUT      0.391255
    162 O23        89.3390   65.5195   31.8087 S1         2 LUT     -0.528210
    163 C24        87.7625   67.0401   32.7484 W6         2 LUT     -0.258361
    164 C25        86.7893   66.9334   33.6481 Z5         2 LUT      0.133546
    165 C26        86.9745   66.1915   35.0232 W8         2 LUT     -0.147008
    166 C27        86.1856   66.9409   36.0377 Z7         2 LUT      0.023843
    167 C28        85.0600   66.4420   36.5730 Z8         2 LUT     -0.216987
    168 C29        84.2444   66.9583   37.6886 Z9         2 LUT      0.206524
    169 C30        83.1366   66.2536   38.0579 Y1         2 LUT     -0.215556
    170 C31        82.2863   66.5402   39.2204 Y2         2 LUT      0.025142
    171 C32        81.1640   65.7928   39.4580 Y3         2 LUT     -0.212209
    172 C33        80.2763   65.8876   40.5265 Y4         2 LUT      0.240937
    173 C34        79.1083   65.1476   40.4685 Y5         2 LUT     -0.218862
    174 C35        78.0796   65.1399   41.4092 Y6         2 LUT     -0.023547
    175 C36        89.2283   67.4371   35.7071 Y7         2 LUT     -0.393485
    176 C37        88.7495   65.2507   36.6478 Y7         2 LUT     -0.393485
    177 C38        85.4523   67.6170   33.3702 Y9         2 LUT     -0.387526
    178 C39        84.6551   68.2335   38.3465 W1         2 LUT     -0.322618
    179 C40        80.7987   66.5765   41.7355 W2         2 LUT     -0.358472
    180 H403       80.2712   66.2768   42.6434 R7         2 LUT      0.097720
    181 H402       81.8950   66.5308   41.9762 R7         2 LUT      0.097720
    182 H401       80.5071   67.6301   41.6263 R7         2 LUT      0.097720
    183 H393       83.7883   68.8383   38.6022 R4         2 LUT      0.082505
    184 H392       85.1575   67.9725   39.2759 R4         2 LUT      0.082505
    185 H391       85.3733   68.9397   37.8136 R4         2 LUT      0.082505
    186 H383       84.5833   66.9428   33.6262 R1         2 LUT      0.104030
    187 H382       85.3949   68.4463   34.0804 R1         2 LUT      0.104030
    188 H381       85.4746   67.9381   32.3093 R1         2 LUT      0.104030
    189 H373       89.7955   65.2316   36.8838 T4         2 LUT      0.089537
    190 H372       88.2241   65.7568   37.4459 T4         2 LUT      0.089537
    191 H371       88.2748   64.2934   36.4427 T4         2 LUT      0.089537
    192 H363       88.8731   67.8437   36.6899 T4         2 LUT      0.089537
    193 H362       90.3135   67.1342   35.8067 T4         2 LUT      0.089537
    194 H361       89.0694   68.2594   35.0228 T4         2 LUT      0.089537
    195 H222       90.2662   65.3923   34.4328 U2         2 LUT      0.127376
    196 H221       88.8597   64.4704   34.0129 U2         2 LUT      0.127376
    197 H203       74.1816   61.8894   41.0662 R7         2 LUT      0.087068
    198 H202       73.0399   63.2367   40.8267 R7         2 LUT      0.087068
    199 H201       74.6546   63.1105   40.0218 R7         2 LUT      0.087068
    200 H193       69.6233   60.6154   45.2105 R4         2 LUT      0.089716
    201 H192       70.9248   60.6609   44.0226 R4         2 LUT      0.089716
    202 H191       71.0444   59.9209   45.5779 R4         2 LUT      0.089716
    203 H183       68.4780   65.2207   47.3437 R1         2 LUT      0.094572
    204 H182       67.6953   63.8950   46.3150 R1         2 LUT      0.094572
    205 H181       66.6849   65.1043   47.1767 R1         2 LUT      0.094572
    206 H173       70.9887   62.1303   49.7102 T4         2 LUT      0.093752
    207 H172       70.4312   61.1918   51.1631 T4         2 LUT      0.093752
    208 H171       70.2061   60.4883   49.7256 T4         2 LUT      0.093752
    209 H163       67.7770   60.3951   50.0230 T4         2 LUT      0.093752
    210 H162       68.0134   60.9195   51.7740 T4         2 LUT      0.093752
    211 H161       66.7653   61.5449   50.5563 T4         2 LUT      0.093752
    212 HO3        67.0506   65.6389   52.2718 Q1         2 LUT      0.300121
    213 H8         70.6576   63.6553   47.2088 U7         2 LUT      0.080784
    214 H7         69.2149   61.0764   47.2348 U6         2 LUT      0.042190
    215 H42        65.8085   63.7629   49.5426 U5         2 LUT      0.145166
    216 H41        66.7164   65.3181   49.4533 U5         2 LUT      0.145166
    217 H35        78.1887   65.7300   42.3230 T3         2 LUT      0.077919
    218 H34        78.8744   64.5148   39.5990 T2         2 LUT      0.073626
    219 H32        81.0194   65.0507   38.6497 T1         2 LUT      0.092510
    220 H31        82.6171   67.2984   39.9198 U9         2 LUT      0.070048
    221 H30        82.8886   65.3289   37.4290 U8         2 LUT      0.085442
    222 H3         66.7412   63.3736   51.6272 U3         2 LUT     -0.031596
    223 H28        84.8384   65.5506   36.2732 U7         2 LUT      0.084728
    224 H27        86.6741   67.8271   36.4013 U6         2 LUT      0.087291
    225 H26        86.5449   65.1500   34.9549 Q6         2 LUT      0.075325
    226 H24        87.6309   67.5323   31.7743 Q5         2 LUT      0.094482
    227 H23        89.8040   67.2277   32.9609 U3         2 LUT     -0.024869
    228 H22        69.0098   63.0616   51.9647 U2         2 LUT      0.127376
    229 H21        69.4863   64.0722   50.6376 U2         2 LUT      0.127376
    230 H15        76.5630   63.8422   40.4582 T3         2 LUT      0.093200
    231 H14        76.0205   64.9286   43.1921 T2         2 LUT      0.068865
    232 H12        74.1611   64.2472   44.0790 T1         2 LUT      0.095507
    233 H11        72.2290   62.2911   42.8733 U9         2 LUT      0.068930
    234 H10        72.0722   63.9035   45.4781 U8         2 LUT      0.083911
    235 H1         90.2513   65.3637   31.6529 Q1         2 LUT      0.297311
@<TRIPOS>BOND
    1     6     1 1
    2     7     2 1
    3     8     3 1
    4     9     4 1
    5    11     4 1
    6    12     6 1
    7    13     9 1
    8    16     9 1
    9    25     5 1
   10    25    16 1
   11    26    10 1
   12    26    17 1
   13    27    18 1
   14    28    14 1
   15    28    19 1
   16    29    12 1
   17    30    13 1
   18    31    24 1
   19    32     1 1
   20    32    25 1
   21    33    21 1
   22    33    26 1
   23    34    22 1
   24    34    27 1
   25    35    23 1
   26    35    28 1
   27    36    12 1
   28    36    24 1
   29    37    13 1
   30    37    15 1
   31    38    31 1
   32    39    20 1
   33    39    32 1
   34    40     2 1
   35    40    33 1
   36    41     3 1
   37    41    34 1
   38    42     4 1
   39    42    35 1
   40    43    38 1
   41    44     5 1
   42    44    17 1
   43    44    39 1
   44    45    10 1
   45    45    18 1
   46    45    40 1
   47    46    19 1
   48    46    41 1
   49    47    14 1
   50    47    16 1
   51    47    42 1
   52    48    38 1
   53    49    48 1
   54    50    49 1
   55    51    50 1
   56    52    51 1
   57    53    51 1
   58    54    53 1
   59    55    54 1
   60    56    55 1
   61    57    56 1
   62    58    56 1
   63    59    58 1
   64    60    59 1
   65    61    60 1
   66    62    61 1
   67    63    61 1
   68    64    27 1
   69    64    46 1
   70    65     5 1
   71    65    10 1
   72    65    64 1
   73    65    14 1
   74    66    23 1
   75    67    23 1
   76    68    23 1
   77    69    22 1
   78    70    22 1
   79    71    22 1
   80    72    21 1
   81    73    21 1
   82    74    21 1
   83    75    20 1
   84    76    20 1
   85    77    20 1
   86    78    15 1
   87    79    15 1
   88    80    15 1
   89    81     8 1
   90    82     8 1
   91    83     8 1
   92    84     7 1
   93    85     7 1
   94    86     6 1
   95    87     6 1
   96    88     3 1
   97    89     3 1
   98    90     1 1
   99    91     1 1
  100    92    63 1
  101    93    63 1
  102    94    63 1
  103    95    62 1
  104    96    62 1
  105    97    62 1
  106    98    60 1
  107    99    60 1
  108   100    59 1
  109   101    59 1
  110   102    58 1
  111   103    58 1
  112   104    57 1
  113   105    57 1
  114   106    57 1
  115   107    55 1
  116   108    55 1
  117   109    54 1
  118   110    54 1
  119   111    53 1
  120   112    53 1
  121   113    19 1
  122   114    18 1
  123   115    17 1
  124   116     9 1
  125   117     2 1
  126   118    52 1
  127   119    52 1
  128   120    52 1
  129   121    51 1
  130   122    50 1
  131   123    50 1
  132   124    49 1
  133   125    49 1
  134   126    48 1
  135   127    48 1
  136   128    43 1
  137   129    43 1
  138   130    43 1
  139   131    39 1
  140   132    32 1
  141   133    31 1
  142   134    61 1
  143   135    56 1
  144   136    24 1
  145   137    24 1
  146   139   138 1
  147   140   139 1
  148   141   140 1
  149   142   140 1
  150   143   142 1
  151   144   138 1
  152   144   143 1
  153   145   144 1
  154   146   145 1
  155   147   146 1
  156   148   147 1
  157   149   148 1
  158   150   149 1
  159   151   150 1
  160   152   151 1
  161   153   152 1
  162   154   138 1
  163   155   138 1
  164   156   143 1
  165   157   147 1
  166   158   151 1
  167   160   159 1
  168   161   160 1
  169   162   161 1
  170   163   161 1
  171   164   163 1
  172   165   159 1
  173   165   164 1
  174   166   165 1
  175   167   166 1
  176   168   167 1
  177   169   168 1
  178   170   169 1
  179   171   170 1
  180   172   171 1
  181   173   172 1
  182   174   153 1
  183   174   173 1
  184   175   159 1
  185   176   159 1
  186   177   164 1
  187   178   168 1
  188   179   172 1
  189   180   179 1
  190   181   179 1
  191   182   179 1
  192   183   178 1
  193   184   178 1
  194   185   178 1
  195   186   177 1
  196   187   177 1
  197   188   177 1
  198   189   176 1
  199   190   176 1
  200   191   176 1
  201   192   175 1
  202   193   175 1
  203   194   175 1
  204   195   160 1
  205   196   160 1
  206   197   158 1
  207   198   158 1
  208   199   158 1
  209   200   157 1
  210   201   157 1
  211   202   157 1
  212   203   156 1
  213   204   156 1
  214   205   156 1
  215   206   155 1
  216   207   155 1
  217   208   155 1
  218   209   154 1
  219   210   154 1
  220   211   154 1
  221   212   141 1
  222   213   146 1
  223   214   145 1
  224   215   142 1
  225   216   142 1
  226   217   174 1
  227   218   173 1
  228   219   171 1
  229   220   170 1
  230   221   169 1
  231   222   140 1
  232   223   167 1
  233   224   166 1
  234   225   165 1
  235   226   163 1
  236   227   161 1
  237   228   139 1
  238   229   139 1
  239   230   153 1
  240   231   152 1
  241   232   150 1
  242   233   149 1
  243   234   148 1
  244   235   162 1
  245   65    153 1
  246   65    174 1
@<TRIPOS>SUBSTRUCTURE
      1 CLA               1 ****               0 ****  **** 
      2 LUT             138 ****               0 ****  **** 
