@<TRIPOS>MOLECULE
Cpptraj generated mol2 file.
  235   246     2     0     0
SMALL
USER_CHARGES


@<TRIPOS>ATOM
      1 CAA        78.9489   57.4829   35.0909 a2         1 CLA     -0.055900
      2 CAB        78.0143   61.2934   43.7129 c8         1 CLA     -0.148500
      3 CAC        71.6166   56.5647   43.1561 a2         1 CLA     -0.012600
      4 CAD        74.5980   54.7394   35.8757 ck         1 CLA      0.398800
      5 NA         77.5924   57.6390   38.3900 ns         1 CLA     -0.225500
      6 CBA        80.3844   57.5419   34.3922 a2         1 CLA     -0.135000
      7 CBB        78.8256   61.1131   44.7591 c0         1 CLA     -0.395200
      8 CBC        71.8955   55.0748   43.3488 a3         1 CLA     -0.037700
      9 CBD        75.9715   55.4771   35.4919 a1         1 CLA     -0.053900
     10 NB         77.2791   59.0999   40.8808 nm         1 CLA     -0.295700
     11 OBD        73.9814   53.9537   35.0798 o2         1 CLA     -0.494600
     12 CGA        81.1790   56.2308   34.0234 c4         1 CLA      0.827000
     13 CGD        76.9658   54.4043   35.0097 c4         1 CLA      0.655300
     14 ND         74.8153   56.7116   38.7744 nm         1 CLA     -0.291600
     15 CED        78.2043   52.4256   35.5102 a3         1 CLA      0.005400
     16 CHA        76.3426   56.2981   36.7367 cs         1 CLA     -0.123800
     17 CHB        79.3083   58.8828   39.5315 aa         1 CLA     -0.291900
     18 CHC        75.7940   59.3668   42.8066 aa         1 CLA     -0.090400
     19 CHD        72.8804   56.4848   40.3089 aa         1 CLA     -0.052000
     20 CMA        80.9438   56.5758   38.2170 a3         1 CLA     -0.230700
     21 CMB        80.4724   60.9355   41.7830 a3         1 CLA     -0.180800
     22 CMC        73.5018   58.7008   44.8561 a3         1 CLA     -0.134000
     23 CMD        71.9905   54.3481   38.2131 a3         1 CLA     -0.141100
     24 C1         82.3125   54.2425   34.7789 a2         1 CLA      0.023000
     25 C1A        77.4795   57.0043   37.1503 ac         1 CLA     -0.015100
     26 C1B        78.6144   59.3763   40.6310 cr         1 CLA      0.054700
     27 C1C        74.7115   58.5614   42.5330 cn         1 CLA     -0.005600
     28 C1D        73.5275   56.2391   39.0688 ap         1 CLA     -0.047300
     29 O1A        81.3490   55.7846   32.8836 o2         1 CLA     -0.610800
     30 O1D        77.5657   54.4683   33.9475 o2         1 CLA     -0.558200
     31 C2         82.1890   53.4522   36.0313 c8         1 CLA     -0.325100
     32 C2A        78.8745   56.8702   36.5320 a1         1 CLA      0.098600
     33 C2B        79.1250   60.2466   41.6943 cb         1 CLA      0.088500
     34 C2C        73.6204   58.2094   43.4299 cb         1 CLA      0.053700
     35 C2D        73.1958   55.2789   38.0318 cb         1 CLA      0.058900
     36 O2A        81.6524   55.4812   35.0857 o1         1 CLA     -0.437200
     37 O2D        77.1662   53.3758   35.9367 o1         1 CLA     -0.357600
     38 C3         83.0475   52.6696   36.7095 c5         1 CLA      0.031200
     39 C3A        79.8517   57.4929   37.6185 a1         1 CLA      0.166800
     40 C3B        78.0575   60.3770   42.5549 cb         1 CLA      0.035000
     41 C3C        72.8219   57.2722   42.7119 cb         1 CLA     -0.089900
     42 C3D        74.2196   55.3335   37.1289 cb         1 CLA     -0.035900
     43 C4         83.0851   51.1076   36.6089 a3         1 CLA     -0.053300
     44 C4A        78.8759   58.0077   38.6402 ac         1 CLA      0.001800
     45 C4B        76.9528   59.6542   42.0511 cn         1 CLA     -0.020900
     46 C4C        73.4395   57.2239   41.3613 cr         1 CLA     -0.044400
     47 C4D        75.1756   56.2342   37.5229 c6         1 CLA     -0.046000
     48 C5         83.9704   53.2020   37.8714 a2         1 CLA     -0.070400
     49 C6         84.7155   54.5581   37.7110 a2         1 CLA      0.043900
     50 C7         85.2891   54.8864   39.0903 a2         1 CLA     -0.150000
     51 C8         86.1506   56.2222   39.1459 a1         1 CLA      0.064200
     52 C9         87.5474   55.8471   38.5390 a3         1 CLA     -0.259300
     53 C10        86.2452   56.6773   40.6162 a2         1 CLA     -0.071900
     54 C11        84.9235   57.2851   41.0785 a2         1 CLA      0.014500
     55 C12        85.2059   57.9579   42.3823 a2         1 CLA     -0.112100
     56 C13        85.5534   57.0470   43.6011 a1         1 CLA      0.089200
     57 C14        84.6356   55.8956   43.6647 a3         1 CLA     -0.239100
     58 C15        85.7275   57.8879   44.9320 a2         1 CLA     -0.102200
     59 C16        84.6010   58.7542   45.3659 a2         1 CLA      0.023900
     60 C17        84.7600   59.4295   46.7937 a2         1 CLA     -0.105700
     61 C18        83.6690   60.4141   47.2619 a1         1 CLA      0.206800
     62 C19        82.4624   59.7161   47.7972 a3         1 CLA     -0.280100
     63 C20        84.2074   61.4582   48.3926 a3         1 CLA     -0.280100
     64 NC         74.6363   57.8437   41.3822 nx         1 CLA     -0.309200
     65 MG         75.9994   57.8905   39.7727 mg         1 CLA      0.895000
     66 HMD3       71.1652   54.7420   37.6797 dc         1 CLA      0.064300
     67 HMD2       72.3506   53.3617   37.8434 dc         1 CLA      0.064300
     68 HMD1       71.8201   54.3036   39.3075 dc         1 CLA      0.064300
     69 HMC3       72.6764   58.1044   45.2538 dc         1 CLA      0.052100
     70 HMC2       74.4427   58.5772   45.4197 dc         1 CLA      0.052100
     71 HMC1       73.0787   59.7217   44.8043 dc         1 CLA      0.052100
     72 HMB3       81.2887   60.2498   41.6946 dc         1 CLA      0.063600
     73 HMB2       80.5752   61.6725   40.9524 dc         1 CLA      0.063600
     74 HMB1       80.7177   61.4031   42.7057 dc         1 CLA      0.063600
     75 HMA3       81.4979   57.0837   38.9379 dc         1 CLA      0.058300
     76 HMA2       80.3460   55.7398   38.6149 dc         1 CLA      0.058300
     77 HMA1       81.6218   56.2853   37.4803 dc         1 CLA      0.058300
     78 HED3       79.1134   53.0898   35.3477 dc         1 CLA      0.079300
     79 HED2       78.3198   51.6340   36.2782 dc         1 CLA      0.079300
     80 HED1       78.0465   51.9036   34.6122 dc         1 CLA      0.079300
     81 HBC3       71.8489   54.5738   42.3752 dc         1 CLA      0.016300
     82 HBC2       72.8283   54.9413   43.8025 dc         1 CLA      0.016300
     83 HBC1       71.0763   54.6249   43.9604 dc         1 CLA      0.016300
     84 HBB2       78.7230   61.7600   45.6235 da         1 CLA      0.183000
     85 HBB1       79.5017   60.2878   44.6946 da         1 CLA      0.183000
     86 HBA2       80.1979   57.9460   33.4121 dc         1 CLA      0.029400
     87 HBA1       80.9851   58.1883   35.0481 dc         1 CLA      0.029400
     88 HAC2       71.1482   57.1493   43.9725 dc         1 CLA      0.029300
     89 HAC1       70.8718   56.6035   42.3255 dc         1 CLA      0.029300
     90 HAA2       78.3195   56.9106   34.3964 dc         1 CLA      0.028700
     91 HAA1       78.4976   58.4396   35.3085 dc         1 CLA      0.028700
     92 H203       83.6616   62.3649   48.4130 dc         1 CLA      0.065600
     93 H202       84.3346   60.9489   49.3596 dc         1 CLA      0.065600
     94 H201       85.2861   61.7723   48.1425 dc         1 CLA      0.065600
     95 H193       82.5937   59.2080   48.7353 dc         1 CLA      0.065600
     96 H192       81.7231   60.4611   48.0945 dc         1 CLA      0.065600
     97 H191       82.0304   59.1069   47.0092 dc         1 CLA      0.065600
     98 H172       84.7643   58.7336   47.6117 dc         1 CLA      0.027600
     99 H171       85.6629   60.0367   46.7811 dc         1 CLA      0.027600
    100 H162       84.4665   59.4652   44.5786 dc         1 CLA      0.002900
    101 H161       83.6962   58.1657   45.5019 dc         1 CLA      0.002900
    102 H152       85.9104   57.1070   45.6701 dc         1 CLA      0.029100
    103 H151       86.6796   58.4888   44.8424 dc         1 CLA      0.029100
    104 H143       83.6348   56.3369   43.8933 dc         1 CLA      0.063600
    105 H142       84.6723   55.2300   42.7841 dc         1 CLA      0.063600
    106 H141       84.9602   55.3808   44.5773 dc         1 CLA      0.063600
    107 H122       86.0500   58.6734   42.2959 dc         1 CLA      0.032500
    108 H121       84.3394   58.3839   42.7275 dc         1 CLA      0.032500
    109 H112       84.7787   58.1376   40.3445 dc         1 CLA      0.006600
    110 H111       84.1597   56.5223   41.0053 dc         1 CLA      0.006600
    111 H102       86.6311   55.7671   41.1303 dc         1 CLA      0.024100
    112 H101       86.9779   57.3634   40.6912 dc         1 CLA      0.024100
    113 HHD        71.9610   56.0348   40.6657 da         1 CLA      0.174300
    114 HHC        75.8319   59.8285   43.7746 da         1 CLA      0.136800
    115 HHB        80.3843   59.1821   39.4298 da         1 CLA      0.138300
    116 HBD        75.8262   56.2400   34.6945 dc         1 CLA      0.107700
    117 HAB        77.2271   62.0418   43.8272 da         1 CLA      0.155200
    118 H93        87.3968   55.5878   37.4691 dc         1 CLA      0.069500
    119 H92        88.2696   56.6896   38.6095 dc         1 CLA      0.069500
    120 H91        88.0043   54.9976   39.0086 dc         1 CLA      0.069500
    121 H8         85.7016   57.0437   38.5253 dc         1 CLA      0.029300
    122 H72        84.4594   54.8757   39.8021 dc         1 CLA      0.044400
    123 H71        85.9510   54.0423   39.3465 dc         1 CLA      0.044400
    124 H62        85.4532   54.4327   36.9650 dc         1 CLA      0.015600
    125 H61        84.1501   55.4029   37.3939 dc         1 CLA      0.015600
    126 H52        83.2675   53.3207   38.7476 dc         1 CLA      0.033200
    127 H51        84.7544   52.4957   38.0828 dc         1 CLA      0.033200
    128 H43        82.4892   50.7140   37.4482 dc         1 CLA      0.037000
    129 H42        82.5985   50.8177   35.6865 dc         1 CLA      0.037000
    130 H41        84.1453   50.7164   36.6804 dc         1 CLA      0.037000
    131 H3A        80.4657   58.3250   37.2226 dc         1 CLA      0.041100
    132 H2A        79.1152   55.8056   36.2932 dc         1 CLA      0.083100
    133 H2         81.2253   53.6329   36.4916 da         1 CLA      0.180900
    134 H18        83.3794   61.0509   46.4764 dc         1 CLA     -0.003900
    135 H13        86.4426   56.4167   43.4172 dc         1 CLA      0.019700
    136 H12        81.8233   53.5714   34.0226 dc         1 CLA      0.120400
    137 H11        83.2559   54.4055   34.3752 dc         1 CLA      0.120400
    138 C1         68.6834   61.9918   50.2523 Z1         2 LUT      0.509236
    139 C2         67.6373   61.4739   51.1961 Z2         2 LUT     -0.434695
    140 C3         66.3389   62.3023   51.4573 Z3         2 LUT      0.437453
    141 O3         66.3847   62.7851   52.7997 S1         2 LUT     -0.547129
    142 C4         66.3790   63.5426   50.5075 Z4         2 LUT     -0.468603
    143 C5         66.9042   63.3533   49.1514 Z5         2 LUT      0.279246
    144 C6         67.9746   62.5349   48.9742 Z6         2 LUT     -0.305473
    145 C7         68.4857   61.9117   47.6994 Z7         2 LUT      0.069402
    146 C8         69.7328   61.9662   47.0949 Z8         2 LUT     -0.191631
    147 C9         70.1665   61.4301   45.7939 Z9         2 LUT      0.196698
    148 C10        71.1786   62.2066   45.2304 Y1         2 LUT     -0.208611
    149 C11        71.9570   61.9991   44.0441 Y2         2 LUT      0.030784
    150 C12        73.0515   62.7519   43.7447 Y3         2 LUT     -0.220316
    151 C13        73.9420   62.6763   42.6347 Y4         2 LUT      0.215937
    152 C14        75.1182   63.4070   42.7551 Y5         2 LUT     -0.185793
    153 C15        76.2697   63.4814   41.8291 Y6         2 LUT     -0.057835
    154 C16        69.6131   60.8071   50.0480 Y7         2 LUT     -0.405615
    155 C17        69.4485   63.0671   51.1151 Y7         2 LUT     -0.405615
    156 C18        66.1501   64.0061   48.0458 Y9         2 LUT     -0.369639
    157 C19        69.6424   60.1255   45.2234 W1         2 LUT     -0.333362
    158 C20        73.4597   61.7099   41.5644 W2         2 LUT     -0.323439
    159 C21        87.7825   64.7187   35.8926 Z1         2 LUT      0.406104
    160 C22        88.3638   64.2260   34.5509 Z2         2 LUT     -0.404965
    161 C23        88.4521   65.2516   33.4056 Z3         2 LUT      0.391255
    162 O23        89.1002   64.5977   32.3083 S1         2 LUT     -0.528210
    163 C24        87.0887   65.8324   33.1756 W6         2 LUT     -0.258361
    164 C25        86.1581   65.8656   34.1462 Z5         2 LUT      0.133546
    165 C26        86.3028   65.1553   35.5240 W8         2 LUT     -0.147008
    166 C27        85.5869   65.8481   36.5953 Z7         2 LUT      0.023843
    167 C28        84.4492   65.4203   37.2614 Z8         2 LUT     -0.216987
    168 C29        83.7800   66.0511   38.3646 Z9         2 LUT      0.206524
    169 C30        82.5976   65.4466   38.8363 Y1         2 LUT     -0.215556
    170 C31        81.7049   65.8092   39.9541 Y2         2 LUT      0.025142
    171 C32        80.5677   65.0668   40.1438 Y3         2 LUT     -0.212209
    172 C33        79.6150   65.2244   41.1846 Y4         2 LUT      0.240937
    173 C34        78.4802   64.3187   41.1184 Y5         2 LUT     -0.218862
    174 C35        77.3583   64.2558   42.0060 Y6         2 LUT     -0.023547
    175 C36        88.7663   65.8463   36.4368 Y7         2 LUT     -0.393485
    176 C37        87.9098   63.4304   36.8333 Y7         2 LUT     -0.393485
    177 C38        84.8200   66.5257   33.7466 Y9         2 LUT     -0.387526
    178 C39        84.3354   67.2256   39.0554 W1         2 LUT     -0.322618
    179 C40        79.6459   66.3382   42.2402 W2         2 LUT     -0.358472
    180 H403       78.7536   66.3242   42.9043 R7         2 LUT      0.097720
    181 H402       80.6118   66.3121   42.7459 R7         2 LUT      0.097720
    182 H401       79.7503   67.2661   41.7066 R7         2 LUT      0.097720
    183 H393       84.3403   68.1870   38.4325 R4         2 LUT      0.082505
    184 H392       83.7854   67.4454   39.9577 R4         2 LUT      0.082505
    185 H391       85.3903   67.0338   39.4423 R4         2 LUT      0.082505
    186 H383       84.6013   67.5222   34.2004 R1         2 LUT      0.104030
    187 H382       84.5717   66.4838   32.6384 R1         2 LUT      0.104030
    188 H381       84.0374   65.9932   34.1716 R1         2 LUT      0.104030
    189 H373       87.4535   62.5099   36.4257 T4         2 LUT      0.089537
    190 H372       88.9360   63.2475   37.1487 T4         2 LUT      0.089537
    191 H371       87.3890   63.6358   37.7785 T4         2 LUT      0.089537
    192 H363       89.8125   65.5418   36.3403 T4         2 LUT      0.089537
    193 H362       88.5251   66.7255   35.7931 T4         2 LUT      0.089537
    194 H361       88.5390   66.0383   37.4877 T4         2 LUT      0.089537
    195 H222       89.3219   63.6622   34.6906 U2         2 LUT      0.127376
    196 H221       87.8287   63.3734   34.1927 U2         2 LUT      0.127376
    197 H203       74.1161   61.5065   40.7394 R7         2 LUT      0.087068
    198 H202       73.2045   60.6709   41.9171 R7         2 LUT      0.087068
    199 H201       72.5749   62.0119   41.0137 R7         2 LUT      0.087068
    200 H193       68.7469   59.7683   45.7692 R4         2 LUT      0.089716
    201 H192       69.3196   60.3470   44.1871 R4         2 LUT      0.089716
    202 H191       70.3451   59.2754   45.1434 R4         2 LUT      0.089716
    203 H183       66.3948   63.6556   47.0591 R1         2 LUT      0.094572
    204 H182       65.0905   63.8669   48.1632 R1         2 LUT      0.094572
    205 H181       66.3104   65.1197   48.0741 R1         2 LUT      0.094572
    206 H173       69.6615   62.7434   52.1092 T4         2 LUT      0.093752
    207 H172       70.4278   63.3144   50.6015 T4         2 LUT      0.093752
    208 H171       68.9481   63.9960   51.1603 T4         2 LUT      0.093752
    209 H163       69.2457   59.8988   49.5798 T4         2 LUT      0.093752
    210 H162       70.5082   61.0254   49.5097 T4         2 LUT      0.093752
    211 H161       69.9892   60.3595   51.0211 T4         2 LUT      0.093752
    212 HO3        66.2339   62.1165   53.4561 Q1         2 LUT      0.300121
    213 H8         70.4651   62.6269   47.5781 U7         2 LUT      0.080784
    214 H7         67.7252   61.3324   47.2402 U6         2 LUT      0.042190
    215 H42        65.4125   64.0399   50.5624 U5         2 LUT      0.145166
    216 H41        66.9708   64.4261   50.7682 U5         2 LUT      0.145166
    217 H35        77.2247   64.8852   42.8048 T3         2 LUT      0.077919
    218 H34        78.4511   63.6503   40.2032 T2         2 LUT      0.073626
    219 H32        80.3026   64.2664   39.4445 T1         2 LUT      0.092510
    220 H31        81.9261   66.6161   40.6613 U9         2 LUT      0.070048
    221 H30        82.2786   64.5029   38.3416 U8         2 LUT      0.085442
    222 H3         65.4211   61.7923   51.2362 U3         2 LUT     -0.031596
    223 H28        84.0707   64.4317   36.9858 U7         2 LUT      0.084728
    224 H27        86.0374   66.7769   36.8802 U6         2 LUT      0.087291
    225 H26        85.8167   64.1498   35.5182 Q6         2 LUT      0.075325
    226 H24        86.9364   66.4899   32.2634 Q5         2 LUT      0.094482
    227 H23        89.2367   65.9561   33.7524 U3         2 LUT     -0.024869
    228 H22        67.2538   60.5205   50.7827 U2         2 LUT      0.127376
    229 H21        68.1666   61.2034   52.1548 U2         2 LUT      0.127376
    230 H15        76.3042   62.7032   41.0171 T3         2 LUT      0.093200
    231 H14        75.3295   63.8889   43.7163 T2         2 LUT      0.068865
    232 H12        73.3270   63.4448   44.4780 T1         2 LUT      0.095507
    233 H11        71.6466   61.1161   43.4212 U9         2 LUT      0.068930
    234 H10        71.5254   63.1194   45.6679 U8         2 LUT      0.083911
    235 H1         88.6146   64.7684   31.4795 Q1         2 LUT      0.297311
@<TRIPOS>BOND
    1     6     1 1
    2     7     2 1
    3     8     3 1
    4     9     4 1
    5    11     4 1
    6    12     6 1
    7    13     9 1
    8    16     9 1
    9    25     5 1
   10    25    16 1
   11    26    10 1
   12    26    17 1
   13    27    18 1
   14    28    14 1
   15    28    19 1
   16    29    12 1
   17    30    13 1
   18    31    24 1
   19    32     1 1
   20    32    25 1
   21    33    21 1
   22    33    26 1
   23    34    22 1
   24    34    27 1
   25    35    23 1
   26    35    28 1
   27    36    12 1
   28    36    24 1
   29    37    13 1
   30    37    15 1
   31    38    31 1
   32    39    20 1
   33    39    32 1
   34    40     2 1
   35    40    33 1
   36    41     3 1
   37    41    34 1
   38    42     4 1
   39    42    35 1
   40    43    38 1
   41    44     5 1
   42    44    17 1
   43    44    39 1
   44    45    10 1
   45    45    18 1
   46    45    40 1
   47    46    19 1
   48    46    41 1
   49    47    14 1
   50    47    16 1
   51    47    42 1
   52    48    38 1
   53    49    48 1
   54    50    49 1
   55    51    50 1
   56    52    51 1
   57    53    51 1
   58    54    53 1
   59    55    54 1
   60    56    55 1
   61    57    56 1
   62    58    56 1
   63    59    58 1
   64    60    59 1
   65    61    60 1
   66    62    61 1
   67    63    61 1
   68    64    27 1
   69    64    46 1
   70    65     5 1
   71    65    10 1
   72    65    64 1
   73    65    14 1
   74    66    23 1
   75    67    23 1
   76    68    23 1
   77    69    22 1
   78    70    22 1
   79    71    22 1
   80    72    21 1
   81    73    21 1
   82    74    21 1
   83    75    20 1
   84    76    20 1
   85    77    20 1
   86    78    15 1
   87    79    15 1
   88    80    15 1
   89    81     8 1
   90    82     8 1
   91    83     8 1
   92    84     7 1
   93    85     7 1
   94    86     6 1
   95    87     6 1
   96    88     3 1
   97    89     3 1
   98    90     1 1
   99    91     1 1
  100    92    63 1
  101    93    63 1
  102    94    63 1
  103    95    62 1
  104    96    62 1
  105    97    62 1
  106    98    60 1
  107    99    60 1
  108   100    59 1
  109   101    59 1
  110   102    58 1
  111   103    58 1
  112   104    57 1
  113   105    57 1
  114   106    57 1
  115   107    55 1
  116   108    55 1
  117   109    54 1
  118   110    54 1
  119   111    53 1
  120   112    53 1
  121   113    19 1
  122   114    18 1
  123   115    17 1
  124   116     9 1
  125   117     2 1
  126   118    52 1
  127   119    52 1
  128   120    52 1
  129   121    51 1
  130   122    50 1
  131   123    50 1
  132   124    49 1
  133   125    49 1
  134   126    48 1
  135   127    48 1
  136   128    43 1
  137   129    43 1
  138   130    43 1
  139   131    39 1
  140   132    32 1
  141   133    31 1
  142   134    61 1
  143   135    56 1
  144   136    24 1
  145   137    24 1
  146   139   138 1
  147   140   139 1
  148   141   140 1
  149   142   140 1
  150   143   142 1
  151   144   138 1
  152   144   143 1
  153   145   144 1
  154   146   145 1
  155   147   146 1
  156   148   147 1
  157   149   148 1
  158   150   149 1
  159   151   150 1
  160   152   151 1
  161   153   152 1
  162   154   138 1
  163   155   138 1
  164   156   143 1
  165   157   147 1
  166   158   151 1
  167   160   159 1
  168   161   160 1
  169   162   161 1
  170   163   161 1
  171   164   163 1
  172   165   159 1
  173   165   164 1
  174   166   165 1
  175   167   166 1
  176   168   167 1
  177   169   168 1
  178   170   169 1
  179   171   170 1
  180   172   171 1
  181   173   172 1
  182   174   153 1
  183   174   173 1
  184   175   159 1
  185   176   159 1
  186   177   164 1
  187   178   168 1
  188   179   172 1
  189   180   179 1
  190   181   179 1
  191   182   179 1
  192   183   178 1
  193   184   178 1
  194   185   178 1
  195   186   177 1
  196   187   177 1
  197   188   177 1
  198   189   176 1
  199   190   176 1
  200   191   176 1
  201   192   175 1
  202   193   175 1
  203   194   175 1
  204   195   160 1
  205   196   160 1
  206   197   158 1
  207   198   158 1
  208   199   158 1
  209   200   157 1
  210   201   157 1
  211   202   157 1
  212   203   156 1
  213   204   156 1
  214   205   156 1
  215   206   155 1
  216   207   155 1
  217   208   155 1
  218   209   154 1
  219   210   154 1
  220   211   154 1
  221   212   141 1
  222   213   146 1
  223   214   145 1
  224   215   142 1
  225   216   142 1
  226   217   174 1
  227   218   173 1
  228   219   171 1
  229   220   170 1
  230   221   169 1
  231   222   140 1
  232   223   167 1
  233   224   166 1
  234   225   165 1
  235   226   163 1
  236   227   161 1
  237   228   139 1
  238   229   139 1
  239   230   153 1
  240   231   152 1
  241   232   150 1
  242   233   149 1
  243   234   148 1
  244   235   162 1
  245   65    153 1
  246   65    174 1
@<TRIPOS>SUBSTRUCTURE
      1 CLA               1 ****               0 ****  **** 
      2 LUT             138 ****               0 ****  **** 
