@<TRIPOS>MOLECULE
Cpptraj generated mol2 file.
  235   246     2     0     0
SMALL
USER_CHARGES


@<TRIPOS>ATOM
      1 CAA        77.2318   57.9849   33.6367 a2         1 CLA     -0.055900
      2 CAB        76.8180   61.3360   42.8400 c8         1 CLA     -0.148500
      3 CAC        70.0329   57.1832   41.7955 a2         1 CLA     -0.012600
      4 CAD        73.3042   55.0726   34.7932 ck         1 CLA      0.398800
      5 NA         76.0996   58.3331   36.9388 ns         1 CLA     -0.225500
      6 CBA        78.5289   57.8264   32.7543 a2         1 CLA     -0.135000
      7 CBB        76.5131   60.6230   43.9593 c0         1 CLA     -0.395200
      8 CBC        70.4097   55.6858   42.1778 a3         1 CLA     -0.037700
      9 CBD        74.7526   55.6477   34.5508 a1         1 CLA     -0.053900
     10 NB         75.7551   59.7419   39.5604 nm         1 CLA     -0.295700
     11 OBD        72.7912   54.2307   34.0581 o2         1 CLA     -0.494600
     12 CGA        78.9156   56.3834   32.4166 c4         1 CLA      0.827000
     13 CGD        75.7708   54.5703   34.5756 c4         1 CLA      0.655300
     14 ND         73.2341   57.3698   37.4147 nm         1 CLA     -0.291600
     15 CED        76.2445   52.2824   35.1736 a3         1 CLA      0.005400
     16 CHA        74.9536   56.6761   35.7012 cs         1 CLA     -0.123800
     17 CHB        77.7368   59.6921   38.0857 aa         1 CLA     -0.291900
     18 CHC        74.3507   59.8353   41.5984 aa         1 CLA     -0.090400
     19 CHD        71.2940   57.0449   38.9239 aa         1 CLA     -0.052000
     20 CMA        79.5111   57.6608   36.6134 a3         1 CLA     -0.230700
     21 CMB        79.0212   61.4647   40.4018 a3         1 CLA     -0.180800
     22 CMC        72.0803   58.7940   43.4988 a3         1 CLA     -0.134000
     23 CMD        70.5026   54.9102   36.9584 a3         1 CLA     -0.141100
     24 C1         79.9161   54.4708   33.3342 a2         1 CLA      0.023000
     25 C1A        76.0504   57.4669   35.9391 ac         1 CLA     -0.015100
     26 C1B        77.0339   60.0563   39.2888 cr         1 CLA      0.054700
     27 C1C        73.1896   59.1419   41.1986 cn         1 CLA     -0.005600
     28 C1D        72.0055   56.7467   37.7968 ap         1 CLA     -0.047300
     29 O1A        78.6562   55.7566   31.4366 o2         1 CLA     -0.610800
     30 O1D        76.7493   54.4970   33.8818 o2         1 CLA     -0.558200
     31 C2         80.3564   54.0753   34.5988 c8         1 CLA     -0.325100
     32 C2A        77.4336   57.4726   35.1011 a1         1 CLA      0.098600
     33 C2B        77.6138   60.8589   40.4122 cb         1 CLA      0.088500
     34 C2C        72.0860   58.7079   42.0294 cb         1 CLA      0.053700
     35 C2D        71.7260   55.7490   36.8632 cb         1 CLA      0.058900
     36 O2A        79.7070   55.9056   33.4195 o1         1 CLA     -0.437200
     37 O2D        75.4316   53.5058   35.3882 o1         1 CLA     -0.357600
     38 C3         81.2236   53.0896   34.8424 c5         1 CLA      0.031200
     39 C3A        78.2887   58.4451   35.9893 a1         1 CLA      0.166800
     40 C3B        76.6184   60.8248   41.4398 cb         1 CLA      0.035000
     41 C3C        71.1805   57.9159   41.2333 cb         1 CLA     -0.089900
     42 C3D        72.8080   55.7121   35.9887 cb         1 CLA     -0.035900
     43 C4         80.7361   51.7245   35.3013 a3         1 CLA     -0.053300
     44 C4A        77.3008   58.9212   37.1012 ac         1 CLA      0.001800
     45 C4B        75.4917   60.1289   40.9134 cn         1 CLA     -0.020900
     46 C4C        71.7257   57.9824   39.8614 cr         1 CLA     -0.044400
     47 C4D        73.7445   56.6645   36.3985 c6         1 CLA     -0.046000
     48 C5         82.6830   53.2728   34.6351 a2         1 CLA     -0.070400
     49 C6         83.2586   54.6789   34.9130 a2         1 CLA      0.043900
     50 C7         83.3855   54.9997   36.4600 a2         1 CLA     -0.150000
     51 C8         83.9001   56.4394   36.8000 a1         1 CLA      0.064200
     52 C9         85.1580   56.7774   36.0538 a3         1 CLA     -0.259300
     53 C10        84.1247   56.7139   38.2849 a2         1 CLA     -0.071900
     54 C11        83.0906   56.2172   39.3100 a2         1 CLA      0.014500
     55 C12        83.2761   56.9300   40.6566 a2         1 CLA     -0.112100
     56 C13        82.3476   56.2495   41.6757 a1         1 CLA      0.089200
     57 C14        80.9298   56.7115   41.3332 a3         1 CLA     -0.239100
     58 C15        82.6681   56.4396   43.2211 a2         1 CLA     -0.102200
     59 C16        82.6951   57.9006   43.6664 a2         1 CLA      0.023900
     60 C17        83.0026   58.0997   45.1350 a2         1 CLA     -0.105700
     61 C18        82.9984   59.5193   45.7143 a1         1 CLA      0.206800
     62 C19        84.3993   60.0795   45.6002 a3         1 CLA     -0.280100
     63 C20        81.8701   60.4993   45.3382 a3         1 CLA     -0.280100
     64 NC         73.0065   58.6090   39.9213 nx         1 CLA     -0.309200
     65 MG         74.4821   58.6044   38.3681 mg         1 CLA      0.895000
     66 HMD3       70.6165   54.0971   36.2014 dc         1 CLA      0.064300
     67 HMD2       70.4756   54.4091   37.8885 dc         1 CLA      0.064300
     68 HMD1       69.5423   55.4711   36.8477 dc         1 CLA      0.064300
     69 HMC3       71.2351   58.2077   43.9188 dc         1 CLA      0.052100
     70 HMC2       72.9183   58.3203   43.9104 dc         1 CLA      0.052100
     71 HMC1       71.9365   59.8191   43.8354 dc         1 CLA      0.052100
     72 HMB3       79.7169   60.6404   40.4724 dc         1 CLA      0.063600
     73 HMB2       79.0552   62.0630   39.4616 dc         1 CLA      0.063600
     74 HMB1       79.0874   62.1362   41.3247 dc         1 CLA      0.063600
     75 HMA3       80.0255   57.1648   35.7729 dc         1 CLA      0.058300
     76 HMA2       80.1972   58.2636   37.0901 dc         1 CLA      0.058300
     77 HMA1       79.1027   57.0088   37.3159 dc         1 CLA      0.058300
     78 HED3       76.0493   51.4251   35.8400 dc         1 CLA      0.079300
     79 HED2       76.0104   51.8260   34.1990 dc         1 CLA      0.079300
     80 HED1       77.3072   52.4711   35.2273 dc         1 CLA      0.079300
     81 HBC3       71.2074   55.9025   42.9179 dc         1 CLA      0.016300
     82 HBC2       69.4929   55.3685   42.6399 dc         1 CLA      0.016300
     83 HBC1       70.7073   54.9707   41.3602 dc         1 CLA      0.016300
     84 HBB2       76.6781   61.0374   44.9642 da         1 CLA      0.183000
     85 HBB1       75.9519   59.6594   43.9960 da         1 CLA      0.183000
     86 HBA2       78.3542   58.5091   31.9180 dc         1 CLA      0.029400
     87 HBA1       79.3005   58.3036   33.3463 dc         1 CLA      0.029400
     88 HAC2       69.7147   57.6658   42.7201 dc         1 CLA      0.029300
     89 HAC1       69.1739   57.1310   41.1709 dc         1 CLA      0.029300
     90 HAA2       76.3380   57.5176   33.2204 dc         1 CLA      0.028700
     91 HAA1       76.9499   59.0162   33.6967 dc         1 CLA      0.028700
     92 H203       81.8624   60.5879   44.2745 dc         1 CLA      0.065600
     93 H202       80.8407   60.1230   45.5457 dc         1 CLA      0.065600
     94 H201       81.8912   61.5163   45.8215 dc         1 CLA      0.065600
     95 H193       85.1279   59.4287   46.0346 dc         1 CLA      0.065600
     96 H192       84.5868   60.3619   44.5872 dc         1 CLA      0.065600
     97 H191       84.3385   60.9759   46.1952 dc         1 CLA      0.065600
     98 H172       82.2484   57.5172   45.6497 dc         1 CLA      0.027600
     99 H171       83.9507   57.6186   45.4220 dc         1 CLA      0.027600
    100 H162       83.3216   58.5610   43.0377 dc         1 CLA      0.002900
    101 H161       81.6899   58.3145   43.6672 dc         1 CLA      0.002900
    102 H152       81.8925   55.9564   43.8738 dc         1 CLA      0.029100
    103 H151       83.5874   56.0123   43.5354 dc         1 CLA      0.029100
    104 H143       80.2083   56.0323   41.8381 dc         1 CLA      0.063600
    105 H142       80.6623   57.7490   41.6297 dc         1 CLA      0.063600
    106 H141       80.7513   56.7797   40.2793 dc         1 CLA      0.063600
    107 H122       84.2805   56.6647   40.9857 dc         1 CLA      0.032500
    108 H121       83.1306   58.0183   40.6721 dc         1 CLA      0.032500
    109 H112       82.1636   56.5912   38.8384 dc         1 CLA      0.006600
    110 H111       83.1051   55.1297   39.4987 dc         1 CLA      0.006600
    111 H102       85.0220   56.1420   38.4840 dc         1 CLA      0.024100
    112 H101       84.2732   57.8177   38.3042 dc         1 CLA      0.024100
    113 HHD        70.5339   56.3805   39.3880 da         1 CLA      0.174300
    114 HHC        74.2013   60.2325   42.5319 da         1 CLA      0.136800
    115 HHB        78.7383   60.1457   38.0601 da         1 CLA      0.138300
    116 HBD        74.8420   56.0313   33.5343 dc         1 CLA      0.107700
    117 HAB        77.2579   62.2860   43.0582 da         1 CLA      0.155200
    118 H93        85.8676   55.9958   36.2912 dc         1 CLA      0.069500
    119 H92        84.9667   56.7873   34.9952 dc         1 CLA      0.069500
    120 H91        85.5663   57.7537   36.3978 dc         1 CLA      0.069500
    121 H8         83.1529   57.1121   36.3709 dc         1 CLA      0.029300
    122 H72        82.3751   54.8106   36.9366 dc         1 CLA      0.044400
    123 H71        84.0809   54.2460   36.8254 dc         1 CLA      0.044400
    124 H62        84.2316   54.6598   34.3762 dc         1 CLA      0.015600
    125 H61        82.6539   55.4520   34.3598 dc         1 CLA      0.015600
    126 H52        83.4360   52.5290   35.0498 dc         1 CLA      0.033200
    127 H51        82.6242   53.0985   33.6184 dc         1 CLA      0.033200
    128 H43        79.6241   51.5571   35.2614 dc         1 CLA      0.037000
    129 H42        81.3772   50.9842   34.8212 dc         1 CLA      0.037000
    130 H41        81.0714   51.5300   36.3049 dc         1 CLA      0.037000
    131 H3A        78.6771   59.3407   35.4634 dc         1 CLA      0.041100
    132 H2A        78.0027   56.5234   35.0173 dc         1 CLA      0.083100
    133 H2         80.2167   54.7866   35.4260 da         1 CLA      0.180900
    134 H18        82.8175   59.3962   46.7803 dc         1 CLA     -0.003900
    135 H13        82.4525   55.2070   41.5604 dc         1 CLA      0.019700
    136 H12        79.0581   53.8326   33.1000 dc         1 CLA      0.120400
    137 H11        80.6252   54.2504   32.5728 dc         1 CLA      0.120400
    138 C1         67.6122   60.6501   49.0402 Z1         2 LUT      0.509236
    139 C2         67.4851   61.5563   50.3158 Z2         2 LUT     -0.434695
    140 C3         66.1134   62.0914   50.4257 Z3         2 LUT      0.437453
    141 O3         65.9999   62.9350   51.5654 S1         2 LUT     -0.547129
    142 C4         65.6734   62.8387   49.2385 Z4         2 LUT     -0.468603
    143 C5         66.2286   62.3919   47.9616 Z5         2 LUT      0.279246
    144 C6         67.2055   61.4775   47.8352 Z6         2 LUT     -0.305473
    145 C7         67.7771   61.1546   46.4484 Z7         2 LUT      0.069402
    146 C8         68.6509   61.9339   45.6968 Z8         2 LUT     -0.191631
    147 C9         69.0165   61.6681   44.3291 Z9         2 LUT      0.196698
    148 C10        69.9732   62.4973   43.7662 Y1         2 LUT     -0.208611
    149 C11        70.6497   62.4018   42.5035 Y2         2 LUT      0.030784
    150 C12        71.7825   63.1123   42.2492 Y3         2 LUT     -0.220316
    151 C13        72.7857   62.9139   41.1374 Y4         2 LUT      0.215937
    152 C14        73.9944   63.5499   41.3269 Y5         2 LUT     -0.185793
    153 C15        75.1602   63.4977   40.4325 Y6         2 LUT     -0.057835
    154 C16        66.8276   59.3033   49.1495 Y7         2 LUT     -0.405615
    155 C17        69.0223   60.0623   48.9125 Y7         2 LUT     -0.405615
    156 C18        65.7678   63.3440   46.8498 Y9         2 LUT     -0.369639
    157 C19        68.3550   60.5517   43.5385 W1         2 LUT     -0.333362
    158 C20        72.3418   62.2183   39.9253 W2         2 LUT     -0.323439
    159 C21        86.6149   64.4640   34.3959 Z1         2 LUT      0.406104
    160 C22        87.1446   63.8177   33.0614 Z2         2 LUT     -0.404965
    161 C23        87.2642   64.9132   31.9578 Z3         2 LUT      0.391255
    162 O23        87.9087   64.2522   30.8330 S1         2 LUT     -0.528210
    163 C24        85.9691   65.6976   31.8087 W6         2 LUT     -0.258361
    164 C25        85.0830   65.8145   32.7670 Z5         2 LUT      0.133546
    165 C26        85.1297   65.0149   34.0977 W8         2 LUT     -0.147008
    166 C27        84.4305   65.7215   35.2358 Z7         2 LUT      0.023843
    167 C28        83.1910   65.5096   35.6135 Z8         2 LUT     -0.216987
    168 C29        82.6203   65.8691   36.9354 Z9         2 LUT      0.206524
    169 C30        81.4900   65.2346   37.3507 Y1         2 LUT     -0.215556
    170 C31        80.6381   65.4114   38.4495 Y2         2 LUT      0.025142
    171 C32        79.5306   64.7098   38.7638 Y3         2 LUT     -0.212209
    172 C33        78.6153   64.9304   39.8934 Y4         2 LUT      0.240937
    173 C34        77.4053   64.2330   39.7836 Y5         2 LUT     -0.218862
    174 C35        76.2439   64.2465   40.6597 Y6         2 LUT     -0.023547
    175 C36        87.6063   65.5088   34.9922 Y7         2 LUT     -0.393485
    176 C37        86.4597   63.2487   35.3950 Y7         2 LUT     -0.393485
    177 C38        83.9347   66.7785   32.3651 Y9         2 LUT     -0.387526
    178 C39        83.3353   66.8938   37.7390 W1         2 LUT     -0.322618
    179 C40        78.8146   65.9896   41.0086 W2         2 LUT     -0.358472
    180 H403       78.2006   66.0508   41.9414 R7         2 LUT      0.097720
    181 H402       79.8365   65.8972   41.2911 R7         2 LUT      0.097720
    182 H401       78.7210   66.9755   40.5520 R7         2 LUT      0.097720
    183 H393       84.1188   66.3047   38.3149 R4         2 LUT      0.082505
    184 H392       83.9649   67.4959   37.1258 R4         2 LUT      0.082505
    185 H391       82.8026   67.4521   38.4079 R4         2 LUT      0.082505
    186 H383       83.1775   66.2611   31.7601 R1         2 LUT      0.104030
    187 H382       83.3465   67.0938   33.1899 R1         2 LUT      0.104030
    188 H381       84.2776   67.6821   31.8142 R1         2 LUT      0.104030
    189 H373       85.9653   62.4155   34.8550 T4         2 LUT      0.089537
    190 H372       87.4141   62.7765   35.6509 T4         2 LUT      0.089537
    191 H371       85.9306   63.4093   36.3577 T4         2 LUT      0.089537
    192 H363       87.2002   66.0114   35.8623 T4         2 LUT      0.089537
    193 H362       88.5557   65.0752   35.3432 T4         2 LUT      0.089537
    194 H361       88.0315   66.2626   34.3647 T4         2 LUT      0.089537
    195 H222       88.1520   63.4282   33.3806 U2         2 LUT      0.127376
    196 H221       86.5616   62.9921   32.5722 U2         2 LUT      0.127376
    197 H203       73.1753   61.8134   39.4068 R7         2 LUT      0.087068
    198 H202       71.8638   61.2227   40.0308 R7         2 LUT      0.087068
    199 H201       71.6323   62.7512   39.1631 R7         2 LUT      0.087068
    200 H193       68.3592   59.5321   43.9419 R4         2 LUT      0.089716
    201 H192       67.2730   60.6934   43.4562 R4         2 LUT      0.089716
    202 H191       68.7029   60.3631   42.5389 R4         2 LUT      0.089716
    203 H183       65.6333   62.8363   45.8646 R1         2 LUT      0.094572
    204 H182       64.7730   63.5726   47.0384 R1         2 LUT      0.094572
    205 H181       66.3627   64.2454   46.7495 R1         2 LUT      0.094572
    206 H173       69.7848   60.8354   48.8636 T4         2 LUT      0.093752
    207 H172       69.2947   59.5537   49.7952 T4         2 LUT      0.093752
    208 H171       69.0871   59.3972   48.0253 T4         2 LUT      0.093752
    209 H163       66.8854   58.6911   48.2621 T4         2 LUT      0.093752
    210 H162       67.2348   58.7283   49.9883 T4         2 LUT      0.093752
    211 H161       65.8317   59.6078   49.4348 T4         2 LUT      0.093752
    212 HO3        65.9467   62.4298   52.3503 Q1         2 LUT      0.300121
    213 H8         69.1009   62.7954   46.1650 U7         2 LUT      0.080784
    214 H7         67.3658   60.2634   45.9749 U6         2 LUT      0.042190
    215 H42        64.5688   62.9288   49.2017 U5         2 LUT      0.145166
    216 H41        65.9794   63.8971   49.3717 U5         2 LUT      0.145166
    217 H35        76.1905   64.8092   41.5879 T3         2 LUT      0.077919
    218 H34        77.2595   63.6421   38.8667 T2         2 LUT      0.073626
    219 H32        79.2551   63.9317   38.0551 T1         2 LUT      0.092510
    220 H31        80.9174   66.1922   39.2002 U9         2 LUT      0.070048
    221 H30        81.1787   64.5618   36.5351 U8         2 LUT      0.085442
    222 H3         65.2920   61.3861   50.3234 U3         2 LUT     -0.031596
    223 H28        82.7125   64.8105   34.9628 U7         2 LUT      0.084728
    224 H27        84.9657   66.2033   36.0055 U6         2 LUT      0.087291
    225 H26        84.5350   64.0736   33.8306 Q6         2 LUT      0.075325
    226 H24        85.7375   66.3524   30.9334 Q5         2 LUT      0.094482
    227 H23        88.0510   65.5662   32.4756 U3         2 LUT     -0.024869
    228 H22        67.6413   60.9886   51.1738 U2         2 LUT      0.127376
    229 H21        68.2294   62.2978   50.2922 U2         2 LUT      0.127376
    230 H15        75.1958   62.9416   39.4520 T3         2 LUT      0.093200
    231 H14        74.1989   63.9556   42.3179 T2         2 LUT      0.068865
    232 H12        72.1054   63.8257   42.9949 T1         2 LUT      0.095507
    233 H11        70.4019   61.6436   41.7965 U9         2 LUT      0.068930
    234 H10        70.4228   63.2409   44.3754 U8         2 LUT      0.083911
    235 H1         87.2038   63.8812   30.2417 Q1         2 LUT      0.297311
@<TRIPOS>BOND
    1     6     1 1
    2     7     2 1
    3     8     3 1
    4     9     4 1
    5    11     4 1
    6    12     6 1
    7    13     9 1
    8    16     9 1
    9    25     5 1
   10    25    16 1
   11    26    10 1
   12    26    17 1
   13    27    18 1
   14    28    14 1
   15    28    19 1
   16    29    12 1
   17    30    13 1
   18    31    24 1
   19    32     1 1
   20    32    25 1
   21    33    21 1
   22    33    26 1
   23    34    22 1
   24    34    27 1
   25    35    23 1
   26    35    28 1
   27    36    12 1
   28    36    24 1
   29    37    13 1
   30    37    15 1
   31    38    31 1
   32    39    20 1
   33    39    32 1
   34    40     2 1
   35    40    33 1
   36    41     3 1
   37    41    34 1
   38    42     4 1
   39    42    35 1
   40    43    38 1
   41    44     5 1
   42    44    17 1
   43    44    39 1
   44    45    10 1
   45    45    18 1
   46    45    40 1
   47    46    19 1
   48    46    41 1
   49    47    14 1
   50    47    16 1
   51    47    42 1
   52    48    38 1
   53    49    48 1
   54    50    49 1
   55    51    50 1
   56    52    51 1
   57    53    51 1
   58    54    53 1
   59    55    54 1
   60    56    55 1
   61    57    56 1
   62    58    56 1
   63    59    58 1
   64    60    59 1
   65    61    60 1
   66    62    61 1
   67    63    61 1
   68    64    27 1
   69    64    46 1
   70    65     5 1
   71    65    10 1
   72    65    64 1
   73    65    14 1
   74    66    23 1
   75    67    23 1
   76    68    23 1
   77    69    22 1
   78    70    22 1
   79    71    22 1
   80    72    21 1
   81    73    21 1
   82    74    21 1
   83    75    20 1
   84    76    20 1
   85    77    20 1
   86    78    15 1
   87    79    15 1
   88    80    15 1
   89    81     8 1
   90    82     8 1
   91    83     8 1
   92    84     7 1
   93    85     7 1
   94    86     6 1
   95    87     6 1
   96    88     3 1
   97    89     3 1
   98    90     1 1
   99    91     1 1
  100    92    63 1
  101    93    63 1
  102    94    63 1
  103    95    62 1
  104    96    62 1
  105    97    62 1
  106    98    60 1
  107    99    60 1
  108   100    59 1
  109   101    59 1
  110   102    58 1
  111   103    58 1
  112   104    57 1
  113   105    57 1
  114   106    57 1
  115   107    55 1
  116   108    55 1
  117   109    54 1
  118   110    54 1
  119   111    53 1
  120   112    53 1
  121   113    19 1
  122   114    18 1
  123   115    17 1
  124   116     9 1
  125   117     2 1
  126   118    52 1
  127   119    52 1
  128   120    52 1
  129   121    51 1
  130   122    50 1
  131   123    50 1
  132   124    49 1
  133   125    49 1
  134   126    48 1
  135   127    48 1
  136   128    43 1
  137   129    43 1
  138   130    43 1
  139   131    39 1
  140   132    32 1
  141   133    31 1
  142   134    61 1
  143   135    56 1
  144   136    24 1
  145   137    24 1
  146   139   138 1
  147   140   139 1
  148   141   140 1
  149   142   140 1
  150   143   142 1
  151   144   138 1
  152   144   143 1
  153   145   144 1
  154   146   145 1
  155   147   146 1
  156   148   147 1
  157   149   148 1
  158   150   149 1
  159   151   150 1
  160   152   151 1
  161   153   152 1
  162   154   138 1
  163   155   138 1
  164   156   143 1
  165   157   147 1
  166   158   151 1
  167   160   159 1
  168   161   160 1
  169   162   161 1
  170   163   161 1
  171   164   163 1
  172   165   159 1
  173   165   164 1
  174   166   165 1
  175   167   166 1
  176   168   167 1
  177   169   168 1
  178   170   169 1
  179   171   170 1
  180   172   171 1
  181   173   172 1
  182   174   153 1
  183   174   173 1
  184   175   159 1
  185   176   159 1
  186   177   164 1
  187   178   168 1
  188   179   172 1
  189   180   179 1
  190   181   179 1
  191   182   179 1
  192   183   178 1
  193   184   178 1
  194   185   178 1
  195   186   177 1
  196   187   177 1
  197   188   177 1
  198   189   176 1
  199   190   176 1
  200   191   176 1
  201   192   175 1
  202   193   175 1
  203   194   175 1
  204   195   160 1
  205   196   160 1
  206   197   158 1
  207   198   158 1
  208   199   158 1
  209   200   157 1
  210   201   157 1
  211   202   157 1
  212   203   156 1
  213   204   156 1
  214   205   156 1
  215   206   155 1
  216   207   155 1
  217   208   155 1
  218   209   154 1
  219   210   154 1
  220   211   154 1
  221   212   141 1
  222   213   146 1
  223   214   145 1
  224   215   142 1
  225   216   142 1
  226   217   174 1
  227   218   173 1
  228   219   171 1
  229   220   170 1
  230   221   169 1
  231   222   140 1
  232   223   167 1
  233   224   166 1
  234   225   165 1
  235   226   163 1
  236   227   161 1
  237   228   139 1
  238   229   139 1
  239   230   153 1
  240   231   152 1
  241   232   150 1
  242   233   149 1
  243   234   148 1
  244   235   162 1
  245   65    153 1
  246   65    174 1
@<TRIPOS>SUBSTRUCTURE
      1 CLA               1 ****               0 ****  **** 
      2 LUT             138 ****               0 ****  **** 
