@<TRIPOS>MOLECULE
Cpptraj generated mol2 file.
  235   246     2     0     0
SMALL
USER_CHARGES


@<TRIPOS>ATOM
      1 CAA        76.6450   58.0480   32.8747 a2         1 CLA     -0.055900
      2 CAB        77.4401   61.6640   41.7560 c8         1 CLA     -0.148500
      3 CAC        70.5024   57.6725   41.9454 a2         1 CLA     -0.012600
      4 CAD        72.6029   55.5691   34.0532 ck         1 CLA      0.398800
      5 NA         76.0080   58.2164   36.3198 ns         1 CLA     -0.225500
      6 CBA        77.7911   57.9917   31.8329 a2         1 CLA     -0.135000
      7 CBB        77.2693   60.9674   42.9511 c0         1 CLA     -0.395200
      8 CBC        70.2761   56.2627   41.7142 a3         1 CLA     -0.037700
      9 CBD        74.0119   56.1065   33.7079 a1         1 CLA     -0.053900
     10 NB         75.9529   59.9092   38.8508 nm         1 CLA     -0.295700
     11 OBD        71.9063   54.8527   33.2953 o2         1 CLA     -0.494600
     12 CGA        78.2359   56.6038   31.4275 c4         1 CLA      0.827000
     13 CGD        74.9073   54.9020   33.2653 c4         1 CLA      0.655300
     14 ND         73.1997   57.5313   36.9440 nm         1 CLA     -0.291600
     15 CED        75.6294   52.6498   33.8379 a3         1 CLA      0.005400
     16 CHA        74.5073   56.9238   34.8551 cs         1 CLA     -0.123800
     17 CHB        77.7631   59.7921   37.1495 aa         1 CLA     -0.291900
     18 CHC        74.7924   60.1157   41.0356 aa         1 CLA     -0.090400
     19 CHD        71.4619   57.3540   38.7525 aa         1 CLA     -0.052000
     20 CMA        79.2948   57.7392   35.5082 a3         1 CLA     -0.230700
     21 CMB        79.2724   61.6838   39.0533 a3         1 CLA     -0.180800
     22 CMC        72.6982   59.5953   43.2268 a3         1 CLA     -0.134000
     23 CMD        70.0102   55.7132   36.5162 a3         1 CLA     -0.141100
     24 C1         79.6855   54.8223   32.1383 a2         1 CLA      0.023000
     25 C1A        75.7869   57.4829   35.1709 ac         1 CLA     -0.015100
     26 C1B        77.2135   60.2024   38.3855 cr         1 CLA      0.054700
     27 C1C        73.6128   59.4483   40.7875 cn         1 CLA     -0.005600
     28 C1D        71.9967   57.0156   37.4453 ap         1 CLA     -0.047300
     29 O1A        78.0794   56.1556   30.3115 o2         1 CLA     -0.610800
     30 O1D        75.8151   54.9571   32.4264 o2         1 CLA     -0.558200
     31 C2         80.1680   54.3983   33.5399 c8         1 CLA     -0.325100
     32 C2A        77.0340   57.5178   34.2318 a1         1 CLA      0.098600
     33 C2B        77.8894   61.0993   39.2743 cb         1 CLA      0.088500
     34 C2C        72.5386   59.2301   41.7669 cb         1 CLA      0.053700
     35 C2D        71.3672   56.2896   36.3431 cb         1 CLA      0.058900
     36 O2A        79.0372   56.0872   32.4544 o1         1 CLA     -0.437200
     37 O2D        74.7404   53.8404   34.0580 o1         1 CLA     -0.357600
     38 C3         80.8445   53.2648   33.8363 c5         1 CLA      0.031200
     39 C3A        78.0559   58.5045   34.9840 a1         1 CLA      0.166800
     40 C3B        77.1337   61.1359   40.4501 cb         1 CLA      0.035000
     41 C3C        71.6790   58.3789   41.1861 cb         1 CLA     -0.089900
     42 C3D        72.2746   56.2200   35.3395 cb         1 CLA     -0.035900
     43 C4         80.1722   51.9876   34.2109 a3         1 CLA     -0.053300
     44 C4A        77.2357   58.8150   36.2741 ac         1 CLA      0.001800
     45 C4B        75.8638   60.4101   40.1703 cn         1 CLA     -0.020900
     46 C4C        72.1013   58.1043   39.7765 cr         1 CLA     -0.044400
     47 C4D        73.4069   57.0203   35.7564 c6         1 CLA     -0.046000
     48 C5         82.3159   53.2321   33.8685 a2         1 CLA     -0.070400
     49 C6         83.0835   54.4053   34.4373 a2         1 CLA      0.043900
     50 C7         83.0044   54.4203   35.9780 a2         1 CLA     -0.150000
     51 C8         83.5389   55.7501   36.6902 a1         1 CLA      0.064200
     52 C9         85.0729   55.9878   36.4962 a3         1 CLA     -0.259300
     53 C10        83.2555   55.9030   38.1700 a2         1 CLA     -0.071900
     54 C11        81.7482   55.8889   38.5155 a2         1 CLA      0.014500
     55 C12        81.3694   56.4518   39.8894 a2         1 CLA     -0.112100
     56 C13        79.8512   56.7263   40.2857 a1         1 CLA      0.089200
     57 C14        79.0974   57.6524   39.2393 a3         1 CLA     -0.239100
     58 C15        79.7106   57.2752   41.6712 a2         1 CLA     -0.102200
     59 C16        80.2344   58.7426   41.9325 a2         1 CLA      0.023900
     60 C17        80.7461   59.0329   43.3051 a2         1 CLA     -0.105700
     61 C18        81.5233   60.3852   43.5119 a1         1 CLA      0.206800
     62 C19        83.0182   60.3589   43.1010 a3         1 CLA     -0.280100
     63 C20        80.9150   61.7053   43.0479 a3         1 CLA     -0.280100
     64 NC         73.3169   58.8139   39.5404 nx         1 CLA     -0.309200
     65 MG         74.5939   58.7281   37.8371 mg         1 CLA      0.895000
     66 HMD3       70.0642   55.3500   37.5196 dc         1 CLA      0.064300
     67 HMD2       69.2634   56.4451   36.3379 dc         1 CLA      0.064300
     68 HMD1       69.7505   54.8216   35.9304 dc         1 CLA      0.064300
     69 HMC3       73.4881   58.9731   43.5669 dc         1 CLA      0.052100
     70 HMC2       73.0705   60.6504   43.2994 dc         1 CLA      0.052100
     71 HMC1       71.7855   59.4063   43.7091 dc         1 CLA      0.052100
     72 HMB3       79.4121   62.4513   39.7542 dc         1 CLA      0.063600
     73 HMB2       80.1487   60.9763   39.1272 dc         1 CLA      0.063600
     74 HMB1       79.3159   62.1913   38.0883 dc         1 CLA      0.063600
     75 HMA3       79.8875   57.5063   34.6222 dc         1 CLA      0.058300
     76 HMA2       80.0078   58.2900   36.1255 dc         1 CLA      0.058300
     77 HMA1       78.9842   56.8033   35.9058 dc         1 CLA      0.058300
     78 HED3       75.5322   52.0914   32.9245 dc         1 CLA      0.079300
     79 HED2       76.7476   52.8697   33.9169 dc         1 CLA      0.079300
     80 HED1       75.2686   51.9786   34.6134 dc         1 CLA      0.079300
     81 HBC3       70.0078   56.0607   40.7281 dc         1 CLA      0.016300
     82 HBC2       71.1967   55.8104   41.9319 dc         1 CLA      0.016300
     83 HBC1       69.5021   55.8194   42.3837 dc         1 CLA      0.016300
     84 HBB2       77.5112   61.4315   43.9228 da         1 CLA      0.183000
     85 HBB1       77.0776   59.8429   42.8307 da         1 CLA      0.183000
     86 HBA2       77.6079   58.6386   30.9653 dc         1 CLA      0.029400
     87 HBA1       78.7468   58.4630   32.1618 dc         1 CLA      0.029400
     88 HAC2       70.6626   57.7624   43.0521 dc         1 CLA      0.029300
     89 HAC1       69.5634   58.1701   41.6823 dc         1 CLA      0.029300
     90 HAA2       75.8190   57.4278   32.5050 dc         1 CLA      0.028700
     91 HAA1       76.2413   59.0554   32.9988 dc         1 CLA      0.028700
     92 H203       81.5727   62.4950   42.9773 dc         1 CLA      0.065600
     93 H202       80.4780   61.5765   42.0369 dc         1 CLA      0.065600
     94 H201       80.0038   61.8678   43.6617 dc         1 CLA      0.065600
     95 H193       83.5033   61.3872   43.0685 dc         1 CLA      0.065600
     96 H192       83.4864   59.6858   43.8609 dc         1 CLA      0.065600
     97 H191       83.0577   59.8254   42.1845 dc         1 CLA      0.065600
     98 H172       79.8531   59.0786   43.9573 dc         1 CLA      0.027600
     99 H171       81.3305   58.1502   43.5283 dc         1 CLA      0.027600
    100 H162       81.0785   58.9636   41.2851 dc         1 CLA      0.002900
    101 H161       79.4738   59.4918   41.7210 dc         1 CLA      0.002900
    102 H152       78.6774   57.2678   41.9764 dc         1 CLA      0.029100
    103 H151       80.2220   56.6259   42.2821 dc         1 CLA      0.029100
    104 H143       78.0830   57.8137   39.4950 dc         1 CLA      0.063600
    105 H142       79.5697   58.6676   39.1570 dc         1 CLA      0.063600
    106 H141       79.1395   57.1741   38.2594 dc         1 CLA      0.063600
    107 H122       81.7427   55.7222   40.6607 dc         1 CLA      0.032500
    108 H121       81.9399   57.3507   40.0165 dc         1 CLA      0.032500
    109 H112       81.3063   56.5332   37.7500 dc         1 CLA      0.006600
    110 H111       81.3464   54.8991   38.3887 dc         1 CLA      0.006600
    111 H102       83.8405   55.1000   38.7052 dc         1 CLA      0.024100
    112 H101       83.6610   56.8832   38.6379 dc         1 CLA      0.024100
    113 HHD        70.4765   56.8636   38.9699 da         1 CLA      0.174300
    114 HHC        74.8837   60.6314   41.9600 da         1 CLA      0.136800
    115 HHB        78.7679   60.2416   36.9553 da         1 CLA      0.138300
    116 HBD        73.7710   56.7262   32.9115 dc         1 CLA      0.107700
    117 HAB        77.9372   62.6030   41.8365 da         1 CLA      0.155200
    118 H93        85.4119   55.5761   35.5421 dc         1 CLA      0.069500
    119 H92        85.1734   57.0928   36.4763 dc         1 CLA      0.069500
    120 H91        85.6925   55.5965   37.3520 dc         1 CLA      0.069500
    121 H8         82.9947   56.6291   36.2332 dc         1 CLA      0.029300
    122 H72        81.9673   54.3617   36.2636 dc         1 CLA      0.044400
    123 H71        83.3877   53.5246   36.4271 dc         1 CLA      0.044400
    124 H62        84.1751   54.3496   34.2362 dc         1 CLA      0.015600
    125 H61        82.6312   55.3590   34.0560 dc         1 CLA      0.015600
    126 H52        82.6658   52.3368   34.4066 dc         1 CLA      0.033200
    127 H51        82.6222   53.1817   32.7887 dc         1 CLA      0.033200
    128 H43        79.0031   51.9558   34.0585 dc         1 CLA      0.037000
    129 H42        80.6414   51.1566   33.6317 dc         1 CLA      0.037000
    130 H41        80.4219   51.7363   35.2328 dc         1 CLA      0.037000
    131 H3A        78.4065   59.4053   34.5293 dc         1 CLA      0.041100
    132 H2A        77.3107   56.5216   34.2110 dc         1 CLA      0.083100
    133 H2         79.9403   55.0487   34.3946 da         1 CLA      0.180900
    134 H18        81.5836   60.6105   44.5951 dc         1 CLA     -0.003900
    135 H13        79.2602   55.7962   40.2593 dc         1 CLA      0.019700
    136 H12        78.8921   54.2264   31.8261 dc         1 CLA      0.120400
    137 H11        80.3804   54.8758   31.2820 dc         1 CLA      0.120400
    138 C1         67.1856   61.1653   49.1208 Z1         2 LUT      0.509236
    139 C2         67.4705   62.3894   49.9941 Z2         2 LUT     -0.434695
    140 C3         66.2809   63.2611   50.3528 Z3         2 LUT      0.437453
    141 O3         66.7866   64.5131   50.8273 S1         2 LUT     -0.547129
    142 C4         65.3706   63.4716   49.1852 Z4         2 LUT     -0.468603
    143 C5         65.8745   62.9260   47.8481 Z5         2 LUT      0.279246
    144 C6         66.6837   61.8131   47.7862 Z6         2 LUT     -0.305473
    145 C7         67.5164   61.3815   46.5781 Z7         2 LUT      0.069402
    146 C8         68.3793   62.0173   45.7845 Z8         2 LUT     -0.191631
    147 C9         68.9807   61.4837   44.4686 Z9         2 LUT      0.196698
    148 C10        69.9557   62.3657   43.8924 Y1         2 LUT     -0.208611
    149 C11        70.6480   62.1013   42.6002 Y2         2 LUT      0.030784
    150 C12        71.7230   62.9188   42.2553 Y3         2 LUT     -0.220316
    151 C13        72.5751   62.9137   41.0793 Y4         2 LUT      0.215937
    152 C14        73.7456   63.6145   41.1361 Y5         2 LUT     -0.185793
    153 C15        74.8975   63.6051   40.2579 Y6         2 LUT     -0.057835
    154 C16        66.0425   60.3328   49.7331 Y7         2 LUT     -0.405615
    155 C17        68.4922   60.2871   49.0341 Y7         2 LUT     -0.405615
    156 C18        65.6171   63.8060   46.6334 Y9         2 LUT     -0.369639
    157 C19        68.4357   60.2260   43.8429 W1         2 LUT     -0.333362
    158 C20        72.1270   62.2770   39.8180 W2         2 LUT     -0.323439
    159 C21        85.8803   65.0842   34.1895 Z1         2 LUT      0.406104
    160 C22        86.6786   64.4087   33.0033 Z2         2 LUT     -0.404965
    161 C23        86.9000   65.3082   31.7543 Z3         2 LUT      0.391255
    162 O23        87.6176   64.5006   30.8244 S1         2 LUT     -0.528210
    163 C24        85.6106   66.0790   31.3513 W6         2 LUT     -0.258361
    164 C25        84.5671   66.2822   32.1703 Z5         2 LUT      0.133546
    165 C26        84.5515   65.6203   33.5754 W8         2 LUT     -0.147008
    166 C27        83.7607   66.4526   34.5340 Z7         2 LUT      0.023843
    167 C28        82.6012   66.0000   34.9397 Z8         2 LUT     -0.216987
    168 C29        81.8656   66.3643   36.1848 Z9         2 LUT      0.206524
    169 C30        80.7079   65.6882   36.5051 Y1         2 LUT     -0.215556
    170 C31        80.0014   65.6042   37.6717 Y2         2 LUT      0.025142
    171 C32        78.8300   64.9727   38.0088 Y3         2 LUT     -0.212209
    172 C33        78.1493   65.0060   39.2770 Y4         2 LUT      0.240937
    173 C34        77.0539   64.2193   39.4008 Y5         2 LUT     -0.218862
    174 C35        76.1224   64.1623   40.3999 Y6         2 LUT     -0.023547
    175 C36        86.7237   66.2885   34.6659 Y7         2 LUT     -0.393485
    176 C37        85.6317   64.1066   35.4105 Y7         2 LUT     -0.393485
    177 C38        83.3812   67.0673   31.7001 Y9         2 LUT     -0.387526
    178 C39        82.6148   67.4468   37.0175 W1         2 LUT     -0.322618
    179 C40        78.7397   65.9558   40.3281 W2         2 LUT     -0.358472
    180 H403       79.0669   66.9335   40.0366 R7         2 LUT      0.097720
    181 H402       78.1430   66.2514   41.1340 R7         2 LUT      0.097720
    182 H401       79.5403   65.5088   40.7945 R7         2 LUT      0.097720
    183 H393       83.6229   67.1394   37.2751 R4         2 LUT      0.082505
    184 H392       82.5905   68.3339   36.4380 R4         2 LUT      0.082505
    185 H391       82.0278   67.5912   37.9252 R4         2 LUT      0.082505
    186 H383       83.5557   67.9356   31.0310 R1         2 LUT      0.104030
    187 H382       82.8356   66.3630   31.0453 R1         2 LUT      0.104030
    188 H381       82.6117   67.3058   32.4636 R1         2 LUT      0.104030
    189 H373       85.1978   63.1842   35.0357 T4         2 LUT      0.089537
    190 H372       86.6386   63.7348   35.7458 T4         2 LUT      0.089537
    191 H371       84.9420   64.4563   36.1841 T4         2 LUT      0.089537
    192 H363       87.7599   65.9082   34.7975 T4         2 LUT      0.089537
    193 H362       86.6879   67.1121   33.9610 T4         2 LUT      0.089537
    194 H361       86.4249   66.7981   35.6109 T4         2 LUT      0.089537
    195 H222       87.7144   64.1092   33.2728 U2         2 LUT      0.127376
    196 H221       86.2239   63.4849   32.7368 U2         2 LUT      0.127376
    197 H203       71.6687   61.2786   39.9906 R7         2 LUT      0.087068
    198 H202       71.5294   62.8526   39.1524 R7         2 LUT      0.087068
    199 H201       72.9800   61.9473   39.2231 R7         2 LUT      0.087068
    200 H193       68.6882   59.3405   44.4890 R4         2 LUT      0.089716
    201 H192       67.3928   60.1785   43.6401 R4         2 LUT      0.089716
    202 H191       68.9450   60.0469   42.9624 R4         2 LUT      0.089716
    203 H183       64.6030   63.9904   46.4575 R1         2 LUT      0.094572
    204 H182       66.0790   64.7549   46.7767 R1         2 LUT      0.094572
    205 H181       66.1093   63.3793   45.7409 R1         2 LUT      0.094572
    206 H173       69.2834   60.8454   48.5151 T4         2 LUT      0.093752
    207 H172       68.8651   60.0244   50.0111 T4         2 LUT      0.093752
    208 H171       68.1697   59.4045   48.4271 T4         2 LUT      0.093752
    209 H163       66.1610   60.2134   50.8414 T4         2 LUT      0.093752
    210 H162       65.1086   60.7602   49.4617 T4         2 LUT      0.093752
    211 H161       65.9086   59.3373   49.2976 T4         2 LUT      0.093752
    212 HO3        66.1178   64.9708   51.3122 Q1         2 LUT      0.300121
    213 H8         68.6482   63.0005   46.1951 U7         2 LUT      0.080784
    214 H7         67.1417   60.4267   46.1838 U6         2 LUT      0.042190
    215 H42        64.3812   62.9068   49.3009 U5         2 LUT      0.145166
    216 H41        64.9708   64.4761   49.2239 U5         2 LUT      0.145166
    217 H35        76.2725   64.7578   41.2810 T3         2 LUT      0.077919
    218 H34        76.8344   63.5919   38.5398 T2         2 LUT      0.073626
    219 H32        78.3634   64.5079   37.2004 T1         2 LUT      0.092510
    220 H31        80.5065   66.1358   38.4727 U9         2 LUT      0.070048
    221 H30        80.3659   64.8858   35.8188 U8         2 LUT      0.085442
    222 H3         65.8501   62.5459   51.2250 U3         2 LUT     -0.031596
    223 H28        82.2755   65.0993   34.4158 U7         2 LUT      0.084728
    224 H27        84.2568   67.2357   35.0874 U6         2 LUT      0.087291
    225 H26        84.0406   64.6037   33.4159 Q6         2 LUT      0.075325
    226 H24        85.7817   66.4635   30.3562 Q5         2 LUT      0.094482
    227 H23        87.6020   66.0623   32.1590 U3         2 LUT     -0.024869
    228 H22        67.9683   62.2001   50.9047 U2         2 LUT      0.127376
    229 H21        68.1495   63.0652   49.4092 U2         2 LUT      0.127376
    230 H15        74.8652   63.0104   39.3737 T3         2 LUT      0.093200
    231 H14        73.9174   64.1530   42.0700 T2         2 LUT      0.068865
    232 H12        72.0541   63.5368   43.1312 T1         2 LUT      0.095507
    233 H11        70.5473   61.3574   41.8597 U9         2 LUT      0.068930
    234 H10        70.1511   63.3274   44.2917 U8         2 LUT      0.083911
    235 H1         87.0772   64.3958   30.0249 Q1         2 LUT      0.297311
@<TRIPOS>BOND
    1     6     1 1
    2     7     2 1
    3     8     3 1
    4     9     4 1
    5    11     4 1
    6    12     6 1
    7    13     9 1
    8    16     9 1
    9    25     5 1
   10    25    16 1
   11    26    10 1
   12    26    17 1
   13    27    18 1
   14    28    14 1
   15    28    19 1
   16    29    12 1
   17    30    13 1
   18    31    24 1
   19    32     1 1
   20    32    25 1
   21    33    21 1
   22    33    26 1
   23    34    22 1
   24    34    27 1
   25    35    23 1
   26    35    28 1
   27    36    12 1
   28    36    24 1
   29    37    13 1
   30    37    15 1
   31    38    31 1
   32    39    20 1
   33    39    32 1
   34    40     2 1
   35    40    33 1
   36    41     3 1
   37    41    34 1
   38    42     4 1
   39    42    35 1
   40    43    38 1
   41    44     5 1
   42    44    17 1
   43    44    39 1
   44    45    10 1
   45    45    18 1
   46    45    40 1
   47    46    19 1
   48    46    41 1
   49    47    14 1
   50    47    16 1
   51    47    42 1
   52    48    38 1
   53    49    48 1
   54    50    49 1
   55    51    50 1
   56    52    51 1
   57    53    51 1
   58    54    53 1
   59    55    54 1
   60    56    55 1
   61    57    56 1
   62    58    56 1
   63    59    58 1
   64    60    59 1
   65    61    60 1
   66    62    61 1
   67    63    61 1
   68    64    27 1
   69    64    46 1
   70    65     5 1
   71    65    10 1
   72    65    64 1
   73    65    14 1
   74    66    23 1
   75    67    23 1
   76    68    23 1
   77    69    22 1
   78    70    22 1
   79    71    22 1
   80    72    21 1
   81    73    21 1
   82    74    21 1
   83    75    20 1
   84    76    20 1
   85    77    20 1
   86    78    15 1
   87    79    15 1
   88    80    15 1
   89    81     8 1
   90    82     8 1
   91    83     8 1
   92    84     7 1
   93    85     7 1
   94    86     6 1
   95    87     6 1
   96    88     3 1
   97    89     3 1
   98    90     1 1
   99    91     1 1
  100    92    63 1
  101    93    63 1
  102    94    63 1
  103    95    62 1
  104    96    62 1
  105    97    62 1
  106    98    60 1
  107    99    60 1
  108   100    59 1
  109   101    59 1
  110   102    58 1
  111   103    58 1
  112   104    57 1
  113   105    57 1
  114   106    57 1
  115   107    55 1
  116   108    55 1
  117   109    54 1
  118   110    54 1
  119   111    53 1
  120   112    53 1
  121   113    19 1
  122   114    18 1
  123   115    17 1
  124   116     9 1
  125   117     2 1
  126   118    52 1
  127   119    52 1
  128   120    52 1
  129   121    51 1
  130   122    50 1
  131   123    50 1
  132   124    49 1
  133   125    49 1
  134   126    48 1
  135   127    48 1
  136   128    43 1
  137   129    43 1
  138   130    43 1
  139   131    39 1
  140   132    32 1
  141   133    31 1
  142   134    61 1
  143   135    56 1
  144   136    24 1
  145   137    24 1
  146   139   138 1
  147   140   139 1
  148   141   140 1
  149   142   140 1
  150   143   142 1
  151   144   138 1
  152   144   143 1
  153   145   144 1
  154   146   145 1
  155   147   146 1
  156   148   147 1
  157   149   148 1
  158   150   149 1
  159   151   150 1
  160   152   151 1
  161   153   152 1
  162   154   138 1
  163   155   138 1
  164   156   143 1
  165   157   147 1
  166   158   151 1
  167   160   159 1
  168   161   160 1
  169   162   161 1
  170   163   161 1
  171   164   163 1
  172   165   159 1
  173   165   164 1
  174   166   165 1
  175   167   166 1
  176   168   167 1
  177   169   168 1
  178   170   169 1
  179   171   170 1
  180   172   171 1
  181   173   172 1
  182   174   153 1
  183   174   173 1
  184   175   159 1
  185   176   159 1
  186   177   164 1
  187   178   168 1
  188   179   172 1
  189   180   179 1
  190   181   179 1
  191   182   179 1
  192   183   178 1
  193   184   178 1
  194   185   178 1
  195   186   177 1
  196   187   177 1
  197   188   177 1
  198   189   176 1
  199   190   176 1
  200   191   176 1
  201   192   175 1
  202   193   175 1
  203   194   175 1
  204   195   160 1
  205   196   160 1
  206   197   158 1
  207   198   158 1
  208   199   158 1
  209   200   157 1
  210   201   157 1
  211   202   157 1
  212   203   156 1
  213   204   156 1
  214   205   156 1
  215   206   155 1
  216   207   155 1
  217   208   155 1
  218   209   154 1
  219   210   154 1
  220   211   154 1
  221   212   141 1
  222   213   146 1
  223   214   145 1
  224   215   142 1
  225   216   142 1
  226   217   174 1
  227   218   173 1
  228   219   171 1
  229   220   170 1
  230   221   169 1
  231   222   140 1
  232   223   167 1
  233   224   166 1
  234   225   165 1
  235   226   163 1
  236   227   161 1
  237   228   139 1
  238   229   139 1
  239   230   153 1
  240   231   152 1
  241   232   150 1
  242   233   149 1
  243   234   148 1
  244   235   162 1
  245   65    153 1
  246   65    174 1
@<TRIPOS>SUBSTRUCTURE
      1 CLA               1 ****               0 ****  **** 
      2 LUT             138 ****               0 ****  **** 
