@<TRIPOS>MOLECULE
Cpptraj generated mol2 file.
  235   246     2     0     0
SMALL
USER_CHARGES


@<TRIPOS>ATOM
      1 CAA        78.4147   58.5647   33.4300 a2         1 CLA     -0.055900
      2 CAB        79.2880   61.7377   42.6588 c8         1 CLA     -0.148500
      3 CAC        71.9169   58.2043   42.2792 a2         1 CLA     -0.012600
      4 CAD        74.3411   56.0300   34.8166 ck         1 CLA      0.398800
      5 NA         77.5959   59.0149   36.8147 ns         1 CLA     -0.225500
      6 CBA        79.5940   58.6299   32.3705 a2         1 CLA     -0.135000
      7 CBB        78.5247   62.4404   43.5058 c0         1 CLA     -0.395200
      8 CBC        72.0053   56.6613   42.4005 a3         1 CLA     -0.037700
      9 CBD        75.8348   56.5557   34.3879 a1         1 CLA     -0.053900
     10 NB         77.6862   60.4285   39.5151 nm         1 CLA     -0.295700
     11 OBD        73.7138   55.1782   34.2619 o2         1 CLA     -0.494600
     12 CGA        80.1757   57.3481   31.8943 c4         1 CLA      0.827000
     13 CGD        76.7634   55.3323   34.0111 c4         1 CLA      0.655300
     14 ND         74.8106   58.2838   37.5018 nm         1 CLA     -0.291600
     15 CED        77.3335   53.1002   34.7149 a3         1 CLA      0.005400
     16 CHA        76.2510   57.4971   35.5496 cs         1 CLA     -0.123800
     17 CHB        79.5411   60.3287   37.8230 aa         1 CLA     -0.291900
     18 CHC        76.5191   60.5588   41.6397 aa         1 CLA     -0.090400
     19 CHD        73.0539   58.0244   39.3234 aa         1 CLA     -0.052000
     20 CMA        81.0133   58.0606   36.3359 a3         1 CLA     -0.230700
     21 CMB        81.1977   61.6992   40.0072 a3         1 CLA     -0.180800
     22 CMC        74.5902   59.4800   43.8484 a3         1 CLA     -0.134000
     23 CMD        71.5053   56.2767   36.9632 a3         1 CLA     -0.141100
     24 C1         81.4807   55.4646   32.5334 a2         1 CLA      0.023000
     25 C1A        77.4578   58.1648   35.7228 ac         1 CLA     -0.015100
     26 C1B        78.9977   60.6744   39.0866 cr         1 CLA      0.054700
     27 C1C        75.2551   59.9244   41.3821 cn         1 CLA     -0.005600
     28 C1D        73.5288   57.8228   37.9732 ap         1 CLA     -0.047300
     29 O1A        80.0634   56.9125   30.7436 o2         1 CLA     -0.610800
     30 O1D        77.6692   55.3059   33.1919 o2         1 CLA     -0.558200
     31 C2         81.9406   54.9026   33.8904 c8         1 CLA     -0.325100
     32 C2A        78.7551   58.0664   34.9019 a1         1 CLA      0.098600
     33 C2B        79.7997   61.2521   40.2125 cb         1 CLA      0.088500
     34 C2C        74.2515   59.4745   42.3616 cb         1 CLA      0.053700
     35 C2D        72.8979   56.9653   36.9710 cb         1 CLA      0.058900
     36 O2A        80.6861   56.6074   32.8747 o1         1 CLA     -0.437200
     37 O2D        76.4911   54.2837   34.8528 o1         1 CLA     -0.357600
     38 C3         82.4969   53.7387   34.0833 c5         1 CLA      0.031200
     39 C3A        79.8073   58.8850   35.7490 a1         1 CLA      0.166800
     40 C3B        78.9014   61.3203   41.3161 cb         1 CLA      0.035000
     41 C3C        73.1700   58.9264   41.7037 cb         1 CLA     -0.089900
     42 C3D        73.9546   56.8150   35.9928 cb         1 CLA     -0.035900
     43 C4         81.6010   52.5251   34.4815 a3         1 CLA     -0.053300
     44 C4A        78.8812   59.5080   36.8892 ac         1 CLA      0.001800
     45 C4B        77.6549   60.7637   40.8849 cn         1 CLA     -0.020900
     46 C4C        73.6737   58.7672   40.3833 cr         1 CLA     -0.044400
     47 C4D        75.0914   57.5933   36.3787 c6         1 CLA     -0.046000
     48 C5         83.9657   53.6218   34.2388 a2         1 CLA     -0.070400
     49 C6         84.8470   54.6036   34.9948 a2         1 CLA      0.043900
     50 C7         84.4324   54.6781   36.5440 a2         1 CLA     -0.150000
     51 C8         85.1172   55.7754   37.4540 a1         1 CLA      0.064200
     52 C9         86.6331   55.4141   37.4365 a3         1 CLA     -0.259300
     53 C10        84.5545   55.8282   38.9389 a2         1 CLA     -0.071900
     54 C11        83.1172   56.3519   39.1497 a2         1 CLA      0.014500
     55 C12        82.8689   56.3513   40.7261 a2         1 CLA     -0.112100
     56 C13        81.3497   56.5698   41.1972 a1         1 CLA      0.089200
     57 C14        80.7537   57.9278   40.7799 a3         1 CLA     -0.239100
     58 C15        81.1200   56.2076   42.6804 a2         1 CLA     -0.102200
     59 C16        81.8989   56.9725   43.7684 a2         1 CLA      0.023900
     60 C17        81.3437   56.7439   45.1973 a2         1 CLA     -0.105700
     61 C18        82.4070   56.9610   46.3087 a1         1 CLA      0.206800
     62 C19        81.8180   56.6973   47.7132 a3         1 CLA     -0.280100
     63 C20        83.6182   55.9554   46.2403 a3         1 CLA     -0.280100
     64 NC         74.8602   59.4780   40.1626 nx         1 CLA     -0.309200
     65 MG         76.1601   59.5001   38.4417 mg         1 CLA      0.895000
     66 HMD3       71.3902   55.9073   35.9520 dc         1 CLA      0.064300
     67 HMD2       71.4593   55.4895   37.6026 dc         1 CLA      0.064300
     68 HMD1       70.6898   57.0340   37.0977 dc         1 CLA      0.064300
     69 HMC3       75.6294   59.5312   44.0975 dc         1 CLA      0.052100
     70 HMC2       74.1078   60.3397   44.2368 dc         1 CLA      0.052100
     71 HMC1       74.0500   58.6448   44.2741 dc         1 CLA      0.052100
     72 HMB3       81.6960   60.7521   39.9109 dc         1 CLA      0.063600
     73 HMB2       81.2781   62.3599   39.0512 dc         1 CLA      0.063600
     74 HMB1       81.5302   62.2304   40.8841 dc         1 CLA      0.063600
     75 HMA3       81.8172   58.6578   36.7973 dc         1 CLA      0.058300
     76 HMA2       80.7396   57.3328   37.0628 dc         1 CLA      0.058300
     77 HMA1       81.5521   57.4597   35.6194 dc         1 CLA      0.058300
     78 HED3       77.0481   52.5719   33.7776 dc         1 CLA      0.079300
     79 HED2       78.4117   53.3725   34.6133 dc         1 CLA      0.079300
     80 HED1       77.1915   52.3775   35.4803 dc         1 CLA      0.079300
     81 HBC3       72.4500   56.0812   41.5699 dc         1 CLA      0.016300
     82 HBC2       72.6771   56.4673   43.2264 dc         1 CLA      0.016300
     83 HBC1       71.0832   56.2113   42.6674 dc         1 CLA      0.016300
     84 HBB2       78.8010   62.7278   44.5912 da         1 CLA      0.183000
     85 HBB1       77.4909   62.6567   43.2050 da         1 CLA      0.183000
     86 HBA2       79.2014   59.0266   31.4055 dc         1 CLA      0.029400
     87 HBA1       80.3765   59.1825   32.7876 dc         1 CLA      0.029400
     88 HAC2       71.6637   58.6213   43.3040 dc         1 CLA      0.029300
     89 HAC1       71.0288   58.4127   41.6260 dc         1 CLA      0.029300
     90 HAA2       77.5033   57.9977   33.0985 dc         1 CLA      0.028700
     91 HAA1       78.1117   59.6673   33.5156 dc         1 CLA      0.028700
     92 H203       84.1876   56.0773   45.3356 dc         1 CLA      0.065600
     93 H202       84.3229   56.2515   47.0123 dc         1 CLA      0.065600
     94 H201       83.3732   54.8013   46.3536 dc         1 CLA      0.065600
     95 H193       81.1704   57.4575   48.1352 dc         1 CLA      0.065600
     96 H192       81.2414   55.7278   47.6368 dc         1 CLA      0.065600
     97 H191       82.5891   56.5217   48.4083 dc         1 CLA      0.065600
     98 H172       80.4843   57.3585   45.2699 dc         1 CLA      0.027600
     99 H171       81.0106   55.6530   45.1566 dc         1 CLA      0.027600
    100 H162       82.9262   56.5694   43.6721 dc         1 CLA      0.002900
    101 H161       81.9248   58.0246   43.4164 dc         1 CLA      0.002900
    102 H152       80.0524   56.3877   42.7258 dc         1 CLA      0.029100
    103 H151       81.3347   55.1998   42.9053 dc         1 CLA      0.029100
    104 H143       81.1622   58.7543   41.3578 dc         1 CLA      0.063600
    105 H142       80.8545   58.1189   39.7541 dc         1 CLA      0.063600
    106 H141       79.6417   57.8452   40.9154 dc         1 CLA      0.063600
    107 H122       83.1128   55.3785   41.1383 dc         1 CLA      0.032500
    108 H121       83.5462   57.0140   41.1990 dc         1 CLA      0.032500
    109 H112       83.0418   57.3033   38.6102 dc         1 CLA      0.006600
    110 H111       82.3633   55.7186   38.6489 dc         1 CLA      0.006600
    111 H102       84.6597   54.7967   39.2421 dc         1 CLA      0.024100
    112 H101       85.2122   56.3332   39.5789 dc         1 CLA      0.024100
    113 HHD        72.1555   57.4557   39.6163 da         1 CLA      0.174300
    114 HHC        76.6474   60.7551   42.6969 da         1 CLA      0.136800
    115 HHB        80.5863   60.4890   37.7615 da         1 CLA      0.138300
    116 HBD        75.5510   57.1387   33.4821 dc         1 CLA      0.107700
    117 HAB        80.2989   61.5471   42.9631 da         1 CLA      0.155200
    118 H93        87.0677   55.3266   36.4846 dc         1 CLA      0.069500
    119 H92        86.9900   56.2629   38.0144 dc         1 CLA      0.069500
    120 H91        86.9699   54.6169   38.0795 dc         1 CLA      0.069500
    121 H8         85.1045   56.7486   36.9440 dc         1 CLA      0.029300
    122 H72        83.3683   55.0563   36.4632 dc         1 CLA      0.044400
    123 H71        84.3830   53.6614   36.9918 dc         1 CLA      0.044400
    124 H62        85.8582   54.2024   34.9926 dc         1 CLA      0.015600
    125 H61        84.7793   55.6113   34.6386 dc         1 CLA      0.015600
    126 H52        83.9553   52.6430   34.7277 dc         1 CLA      0.033200
    127 H51        84.4131   53.4508   33.2598 dc         1 CLA      0.033200
    128 H43        81.9328   51.6125   34.0008 dc         1 CLA      0.037000
    129 H42        81.7566   52.2737   35.5894 dc         1 CLA      0.037000
    130 H41        80.6199   52.6591   34.1640 dc         1 CLA      0.037000
    131 H3A        80.0889   59.7335   35.1292 dc         1 CLA      0.041100
    132 H2A        78.9352   56.9979   34.8372 dc         1 CLA      0.083100
    133 H2         81.9237   55.5495   34.7728 da         1 CLA      0.180900
    134 H18        82.8546   57.9794   46.2103 dc         1 CLA     -0.003900
    135 H13        80.7649   55.8149   40.6182 dc         1 CLA      0.019700
    136 H12        80.8776   54.6947   31.9856 dc         1 CLA      0.120400
    137 H11        82.2799   55.5654   31.8672 dc         1 CLA      0.120400
    138 C1         68.3035   60.9077   49.9322 Z1         2 LUT      0.509236
    139 C2         66.7678   60.8470   50.3164 Z2         2 LUT     -0.434695
    140 C3         66.1118   62.2055   50.5694 Z3         2 LUT      0.437453
    141 O3         66.0818   62.5815   51.9399 S1         2 LUT     -0.547129
    142 C4         66.8083   63.3110   49.7665 Z4         2 LUT     -0.468603
    143 C5         67.5964   62.8137   48.5614 Z5         2 LUT      0.279246
    144 C6         68.4529   61.8106   48.6887 Z6         2 LUT     -0.305473
    145 C7         68.9450   61.2296   47.4420 Z7         2 LUT      0.069402
    146 C8         69.9735   61.6861   46.6952 Z8         2 LUT     -0.191631
    147 C9         70.3113   61.4420   45.3108 Z9         2 LUT      0.196698
    148 C10        71.3223   62.2427   44.8059 Y1         2 LUT     -0.208611
    149 C11        71.9297   62.2153   43.4740 Y2         2 LUT      0.030784
    150 C12        73.0230   62.9232   43.0573 Y3         2 LUT     -0.220316
    151 C13        73.7109   62.8064   41.6943 Y4         2 LUT      0.215937
    152 C14        74.9164   63.4682   41.6503 Y5         2 LUT     -0.185793
    153 C15        75.8716   63.5312   40.6573 Y6         2 LUT     -0.057835
    154 C16        68.7408   59.4954   49.5947 Y7         2 LUT     -0.405615
    155 C17        69.1348   61.4136   51.1220 Y7         2 LUT     -0.405615
    156 C18        67.1510   63.4602   47.3218 Y9         2 LUT     -0.369639
    157 C19        69.4140   60.5741   44.4440 W1         2 LUT     -0.333362
    158 C20        72.8596   62.4444   40.5292 W2         2 LUT     -0.323439
    159 C21        87.2531   65.3543   34.3176 Z1         2 LUT      0.406104
    160 C22        88.0519   64.9945   32.9981 Z2         2 LUT     -0.404965
    161 C23        88.1517   66.1290   32.0028 Z3         2 LUT      0.391255
    162 O23        88.9453   65.7787   30.8790 S1         2 LUT     -0.528210
    163 C24        86.7702   66.8595   31.8114 W6         2 LUT     -0.258361
    164 C25        85.7606   66.8083   32.7280 Z5         2 LUT      0.133546
    165 C26        85.7868   65.8968   33.9968 W8         2 LUT     -0.147008
    166 C27        84.9268   66.3721   35.2312 Z7         2 LUT      0.023843
    167 C28        83.8132   65.8584   35.8335 Z8         2 LUT     -0.216987
    168 C29        83.1341   66.3187   37.0204 Z9         2 LUT      0.206524
    169 C30        81.9446   65.6900   37.4089 Y1         2 LUT     -0.215556
    170 C31        81.2259   65.6746   38.6455 Y2         2 LUT      0.025142
    171 C32        80.0399   65.0362   38.7911 Y3         2 LUT     -0.212209
    172 C33        79.1909   65.0300   39.8920 Y4         2 LUT      0.240937
    173 C34        78.0025   64.3554   39.7555 Y5         2 LUT     -0.218862
    174 C35        76.9733   64.2843   40.7484 Y6         2 LUT     -0.023547
    175 C36        88.1465   66.3402   35.1236 Y7         2 LUT     -0.393485
    176 C37        87.3776   63.9862   35.1365 Y7         2 LUT     -0.393485
    177 C38        84.5203   67.5282   32.5899 Y9         2 LUT     -0.387526
    178 C39        83.9207   67.2445   37.9460 W1         2 LUT     -0.322618
    179 C40        79.5842   65.8315   41.1152 W2         2 LUT     -0.358472
    180 H403       79.3247   66.8351   40.8480 R7         2 LUT      0.097720
    181 H402       79.0992   65.5341   42.0384 R7         2 LUT      0.097720
    182 H401       80.6515   65.8641   41.3489 R7         2 LUT      0.097720
    183 H393       84.9749   66.8204   38.1917 R4         2 LUT      0.082505
    184 H392       84.1059   68.2428   37.5640 R4         2 LUT      0.082505
    185 H391       83.3916   67.3560   38.8562 R4         2 LUT      0.082505
    186 H383       84.4056   68.2667   33.4040 R1         2 LUT      0.104030
    187 H382       84.5529   68.1174   31.7190 R1         2 LUT      0.104030
    188 H381       83.7021   66.8131   32.4632 R1         2 LUT      0.104030
    189 H373       86.6784   63.1511   34.8026 T4         2 LUT      0.089537
    190 H372       88.3955   63.4824   35.2778 T4         2 LUT      0.089537
    191 H371       87.1079   64.2128   36.2316 T4         2 LUT      0.089537
    192 H363       89.1814   66.0662   35.3056 T4         2 LUT      0.089537
    193 H362       88.1398   67.2546   34.5691 T4         2 LUT      0.089537
    194 H361       87.7165   66.4770   36.1087 T4         2 LUT      0.089537
    195 H222       89.1011   64.7275   33.2375 U2         2 LUT      0.127376
    196 H221       87.4986   64.1829   32.4707 U2         2 LUT      0.127376
    197 H203       72.2475   61.5638   40.5813 R7         2 LUT      0.087068
    198 H202       72.1860   63.1732   40.2558 R7         2 LUT      0.087068
    199 H201       73.4474   62.2954   39.6301 R7         2 LUT      0.087068
    200 H193       69.9000   59.9978   43.6937 R4         2 LUT      0.089716
    201 H192       68.7389   59.9692   44.9718 R4         2 LUT      0.089716
    202 H191       68.8387   61.2231   43.7782 R4         2 LUT      0.089716
    203 H183       67.9220   63.2978   46.4906 R1         2 LUT      0.094572
    204 H182       66.1956   63.0575   46.9431 R1         2 LUT      0.094572
    205 H181       66.9896   64.5202   47.4645 R1         2 LUT      0.094572
    206 H173       70.1730   61.5111   50.8516 T4         2 LUT      0.093752
    207 H172       68.8991   62.4929   51.3853 T4         2 LUT      0.093752
    208 H171       69.0560   60.8119   52.0432 T4         2 LUT      0.093752
    209 H163       68.6652   58.8333   50.3943 T4         2 LUT      0.093752
    210 H162       68.0849   58.9473   48.8749 T4         2 LUT      0.093752
    211 H161       69.7694   59.4756   49.2678 T4         2 LUT      0.093752
    212 HO3        65.4773   62.0139   52.3964 Q1         2 LUT      0.300121
    213 H8         70.6491   62.3716   47.1619 U7         2 LUT      0.080784
    214 H7         68.1354   60.5401   47.0722 U6         2 LUT      0.042190
    215 H42        66.1396   64.1794   49.5431 U5         2 LUT      0.145166
    216 H41        67.5256   63.8045   50.4833 U5         2 LUT      0.145166
    217 H35        77.1007   64.9057   41.5761 T3         2 LUT      0.077919
    218 H34        77.8923   63.8068   38.8504 T2         2 LUT      0.073626
    219 H32        79.6100   64.4791   37.9411 T1         2 LUT      0.092510
    220 H31        81.5974   66.2062   39.4932 U9         2 LUT      0.070048
    221 H30        81.5852   65.0520   36.5883 U8         2 LUT      0.085442
    222 H3         65.0796   62.1123   50.1856 U3         2 LUT     -0.031596
    223 H28        83.3459   65.1349   35.2193 U7         2 LUT      0.084728
    224 H27        85.3634   67.1944   35.7843 U6         2 LUT      0.087291
    225 H26        85.2849   64.9076   33.8021 Q6         2 LUT      0.075325
    226 H24        86.7950   67.4500   30.9148 Q5         2 LUT      0.094482
    227 H23        88.7757   66.7823   32.5928 U3         2 LUT     -0.024869
    228 H22        66.3224   60.4539   49.4329 U2         2 LUT      0.127376
    229 H21        66.6260   60.2350   51.1647 U2         2 LUT      0.127376
    230 H15        75.7500   62.9947   39.7151 T3         2 LUT      0.093200
    231 H14        75.3132   63.8670   42.6400 T2         2 LUT      0.068865
    232 H12        73.4725   63.5730   43.8311 T1         2 LUT      0.095507
    233 H11        71.4925   61.5095   42.8546 U9         2 LUT      0.068930
    234 H10        71.7207   62.9054   45.5071 U8         2 LUT      0.083911
    235 H1         88.4456   65.2459   30.2667 Q1         2 LUT      0.297311
@<TRIPOS>BOND
    1     6     1 1
    2     7     2 1
    3     8     3 1
    4     9     4 1
    5    11     4 1
    6    12     6 1
    7    13     9 1
    8    16     9 1
    9    25     5 1
   10    25    16 1
   11    26    10 1
   12    26    17 1
   13    27    18 1
   14    28    14 1
   15    28    19 1
   16    29    12 1
   17    30    13 1
   18    31    24 1
   19    32     1 1
   20    32    25 1
   21    33    21 1
   22    33    26 1
   23    34    22 1
   24    34    27 1
   25    35    23 1
   26    35    28 1
   27    36    12 1
   28    36    24 1
   29    37    13 1
   30    37    15 1
   31    38    31 1
   32    39    20 1
   33    39    32 1
   34    40     2 1
   35    40    33 1
   36    41     3 1
   37    41    34 1
   38    42     4 1
   39    42    35 1
   40    43    38 1
   41    44     5 1
   42    44    17 1
   43    44    39 1
   44    45    10 1
   45    45    18 1
   46    45    40 1
   47    46    19 1
   48    46    41 1
   49    47    14 1
   50    47    16 1
   51    47    42 1
   52    48    38 1
   53    49    48 1
   54    50    49 1
   55    51    50 1
   56    52    51 1
   57    53    51 1
   58    54    53 1
   59    55    54 1
   60    56    55 1
   61    57    56 1
   62    58    56 1
   63    59    58 1
   64    60    59 1
   65    61    60 1
   66    62    61 1
   67    63    61 1
   68    64    27 1
   69    64    46 1
   70    65     5 1
   71    65    10 1
   72    65    64 1
   73    65    14 1
   74    66    23 1
   75    67    23 1
   76    68    23 1
   77    69    22 1
   78    70    22 1
   79    71    22 1
   80    72    21 1
   81    73    21 1
   82    74    21 1
   83    75    20 1
   84    76    20 1
   85    77    20 1
   86    78    15 1
   87    79    15 1
   88    80    15 1
   89    81     8 1
   90    82     8 1
   91    83     8 1
   92    84     7 1
   93    85     7 1
   94    86     6 1
   95    87     6 1
   96    88     3 1
   97    89     3 1
   98    90     1 1
   99    91     1 1
  100    92    63 1
  101    93    63 1
  102    94    63 1
  103    95    62 1
  104    96    62 1
  105    97    62 1
  106    98    60 1
  107    99    60 1
  108   100    59 1
  109   101    59 1
  110   102    58 1
  111   103    58 1
  112   104    57 1
  113   105    57 1
  114   106    57 1
  115   107    55 1
  116   108    55 1
  117   109    54 1
  118   110    54 1
  119   111    53 1
  120   112    53 1
  121   113    19 1
  122   114    18 1
  123   115    17 1
  124   116     9 1
  125   117     2 1
  126   118    52 1
  127   119    52 1
  128   120    52 1
  129   121    51 1
  130   122    50 1
  131   123    50 1
  132   124    49 1
  133   125    49 1
  134   126    48 1
  135   127    48 1
  136   128    43 1
  137   129    43 1
  138   130    43 1
  139   131    39 1
  140   132    32 1
  141   133    31 1
  142   134    61 1
  143   135    56 1
  144   136    24 1
  145   137    24 1
  146   139   138 1
  147   140   139 1
  148   141   140 1
  149   142   140 1
  150   143   142 1
  151   144   138 1
  152   144   143 1
  153   145   144 1
  154   146   145 1
  155   147   146 1
  156   148   147 1
  157   149   148 1
  158   150   149 1
  159   151   150 1
  160   152   151 1
  161   153   152 1
  162   154   138 1
  163   155   138 1
  164   156   143 1
  165   157   147 1
  166   158   151 1
  167   160   159 1
  168   161   160 1
  169   162   161 1
  170   163   161 1
  171   164   163 1
  172   165   159 1
  173   165   164 1
  174   166   165 1
  175   167   166 1
  176   168   167 1
  177   169   168 1
  178   170   169 1
  179   171   170 1
  180   172   171 1
  181   173   172 1
  182   174   153 1
  183   174   173 1
  184   175   159 1
  185   176   159 1
  186   177   164 1
  187   178   168 1
  188   179   172 1
  189   180   179 1
  190   181   179 1
  191   182   179 1
  192   183   178 1
  193   184   178 1
  194   185   178 1
  195   186   177 1
  196   187   177 1
  197   188   177 1
  198   189   176 1
  199   190   176 1
  200   191   176 1
  201   192   175 1
  202   193   175 1
  203   194   175 1
  204   195   160 1
  205   196   160 1
  206   197   158 1
  207   198   158 1
  208   199   158 1
  209   200   157 1
  210   201   157 1
  211   202   157 1
  212   203   156 1
  213   204   156 1
  214   205   156 1
  215   206   155 1
  216   207   155 1
  217   208   155 1
  218   209   154 1
  219   210   154 1
  220   211   154 1
  221   212   141 1
  222   213   146 1
  223   214   145 1
  224   215   142 1
  225   216   142 1
  226   217   174 1
  227   218   173 1
  228   219   171 1
  229   220   170 1
  230   221   169 1
  231   222   140 1
  232   223   167 1
  233   224   166 1
  234   225   165 1
  235   226   163 1
  236   227   161 1
  237   228   139 1
  238   229   139 1
  239   230   153 1
  240   231   152 1
  241   232   150 1
  242   233   149 1
  243   234   148 1
  244   235   162 1
  245   65    153 1
  246   65    174 1
@<TRIPOS>SUBSTRUCTURE
      1 CLA               1 ****               0 ****  **** 
      2 LUT             138 ****               0 ****  **** 
