@<TRIPOS>MOLECULE
Cpptraj generated mol2 file.
  235   246     2     0     0
SMALL
USER_CHARGES


@<TRIPOS>ATOM
      1 CAA        78.4628   57.2174   34.5228 a2         1 CLA     -0.055900
      2 CAB        78.4503   61.7496   43.3980 c8         1 CLA     -0.148500
      3 CAC        71.4982   57.5772   43.3241 a2         1 CLA     -0.012600
      4 CAD        74.0864   55.0377   35.9572 ck         1 CLA      0.398800
      5 NA         77.3423   57.8946   37.9519 ns         1 CLA     -0.225500
      6 CBA        79.6788   56.8489   33.7308 a2         1 CLA     -0.135000
      7 CBB        79.6190   61.7448   44.0460 c0         1 CLA     -0.395200
      8 CBC        71.5962   56.0830   43.4789 a3         1 CLA     -0.037700
      9 CBD        75.5333   55.4405   35.6377 a1         1 CLA     -0.053900
     10 NB         77.2469   59.6977   40.4294 nm         1 CLA     -0.295700
     11 OBD        73.4550   54.2923   35.2328 o2         1 CLA     -0.494600
     12 CGA        79.9741   55.3649   33.6112 c4         1 CLA      0.827000
     13 CGD        76.4398   54.2738   35.4713 c4         1 CLA      0.655300
     14 ND         74.5247   57.0724   38.6894 nm         1 CLA     -0.291600
     15 CED        76.6191   51.9049   35.7760 a3         1 CLA      0.005400
     16 CHA        75.9287   56.4405   36.6860 cs         1 CLA     -0.123800
     17 CHB        79.2016   59.0535   38.9946 aa         1 CLA     -0.291900
     18 CHC        75.8682   60.1601   42.3632 aa         1 CLA     -0.090400
     19 CHD        72.7251   57.0689   40.3077 aa         1 CLA     -0.052000
     20 CMA        80.7682   56.8639   37.3412 a3         1 CLA     -0.230700
     21 CMB        80.5122   61.3837   40.7873 a3         1 CLA     -0.180800
     22 CMC        73.7372   59.6323   44.6430 a3         1 CLA     -0.134000
     23 CMD        71.5896   54.9167   38.1721 a3         1 CLA     -0.141100
     24 C1         80.4553   53.3584   34.9351 a2         1 CLA      0.023000
     25 C1A        77.1236   57.1113   36.8684 ac         1 CLA     -0.015100
     26 C1B        78.5610   59.8544   40.0180 cr         1 CLA      0.054700
     27 C1C        74.6884   59.3655   42.2189 cn         1 CLA     -0.005600
     28 C1D        73.3178   56.6065   39.0664 ap         1 CLA     -0.047300
     29 O1A        79.9291   54.7310   32.5802 o2         1 CLA     -0.610800
     30 O1D        77.2816   54.2225   34.6003 o2         1 CLA     -0.558200
     31 C2         80.8089   53.1148   36.3927 c8         1 CLA     -0.325100
     32 C2A        78.4530   56.8246   36.0451 a1         1 CLA      0.098600
     33 C2B        79.1188   60.8812   40.9328 cb         1 CLA      0.088500
     34 C2C        73.6752   59.1218   43.1770 cb         1 CLA      0.053700
     35 C2D        72.7947   55.6806   38.1404 cb         1 CLA      0.058900
     36 O2A        80.4018   54.8219   34.7664 o1         1 CLA     -0.437200
     37 O2D        76.1777   53.1895   36.3354 o1         1 CLA     -0.357600
     38 C3         81.4832   52.0099   36.8462 c5         1 CLA      0.031200
     39 C3A        79.4535   57.6332   36.8508 a1         1 CLA      0.166800
     40 C3B        78.2146   61.0337   42.0284 cb         1 CLA      0.035000
     41 C3C        72.7484   58.2081   42.5608 cb         1 CLA     -0.089900
     42 C3D        73.7878   55.6218   37.2000 cb         1 CLA     -0.035900
     43 C4         80.8183   50.7734   37.4567 a3         1 CLA     -0.053300
     44 C4A        78.6101   58.2497   37.9853 ac         1 CLA      0.001800
     45 C4B        77.0266   60.3710   41.6099 cn         1 CLA     -0.020900
     46 C4C        73.2207   57.9776   41.2029 cr         1 CLA     -0.044400
     47 C4D        74.8371   56.4510   37.5658 c6         1 CLA     -0.046000
     48 C5         82.9819   52.0569   36.9497 a2         1 CLA     -0.070400
     49 C6         83.3467   53.0587   38.0457 a2         1 CLA      0.043900
     50 C7         84.8934   53.1305   38.2808 a2         1 CLA     -0.150000
     51 C8         85.3989   54.5452   38.8740 a1         1 CLA      0.064200
     52 C9         86.9476   54.6508   38.7571 a3         1 CLA     -0.259300
     53 C10        84.9490   54.9735   40.3028 a2         1 CLA     -0.071900
     54 C11        83.4422   55.2500   40.5616 a2         1 CLA      0.014500
     55 C12        83.1931   56.0868   41.8467 a2         1 CLA     -0.112100
     56 C13        81.6826   56.2834   42.1741 a1         1 CLA      0.089200
     57 C14        80.8988   57.0041   41.0635 a3         1 CLA     -0.239100
     58 C15        81.4465   56.7511   43.5995 a2         1 CLA     -0.102200
     59 C16        82.2251   58.0585   43.9811 a2         1 CLA      0.023900
     60 C17        81.8626   58.4886   45.4238 a2         1 CLA     -0.105700
     61 C18        82.5988   59.7113   46.0010 a1         1 CLA      0.206800
     62 C19        81.7858   60.4639   47.0561 a3         1 CLA     -0.280100
     63 C20        84.0000   59.2869   46.6188 a3         1 CLA     -0.280100
     64 NC         74.3456   58.7380   41.0034 nx         1 CLA     -0.309200
     65 MG         75.8004   58.5002   39.5064 mg         1 CLA      0.895000
     66 HMD3       71.4780   54.4977   39.1639 dc         1 CLA      0.064300
     67 HMD2       70.7848   55.6191   37.8925 dc         1 CLA      0.064300
     68 HMD1       71.6112   54.1418   37.3645 dc         1 CLA      0.064300
     69 HMC3       74.2722   60.6071   44.7392 dc         1 CLA      0.052100
     70 HMC2       72.6399   59.7252   44.8582 dc         1 CLA      0.052100
     71 HMC1       74.1733   58.9723   45.4096 dc         1 CLA      0.052100
     72 HMB3       80.8558   61.3664   39.7584 dc         1 CLA      0.063600
     73 HMB2       80.4042   62.4183   41.1728 dc         1 CLA      0.063600
     74 HMB1       81.0137   60.7091   41.4138 dc         1 CLA      0.063600
     75 HMA3       81.3806   57.4860   37.8975 dc         1 CLA      0.058300
     76 HMA2       80.4737   55.9317   37.8179 dc         1 CLA      0.058300
     77 HMA1       81.3301   56.5518   36.5026 dc         1 CLA      0.058300
     78 HED3       76.0477   51.1535   36.2624 dc         1 CLA      0.079300
     79 HED2       76.5137   51.9167   34.7319 dc         1 CLA      0.079300
     80 HED1       77.6525   51.7950   36.0099 dc         1 CLA      0.079300
     81 HBC3       70.8498   55.6841   44.1625 dc         1 CLA      0.016300
     82 HBC2       71.4149   55.5149   42.5722 dc         1 CLA      0.016300
     83 HBC1       72.5985   55.8129   43.8183 dc         1 CLA      0.016300
     84 HBB2       79.7356   62.3435   45.0003 da         1 CLA      0.183000
     85 HBB1       80.5418   61.2362   43.6903 da         1 CLA      0.183000
     86 HBA2       79.6098   57.3448   32.7742 dc         1 CLA      0.029400
     87 HBA1       80.4748   57.4051   34.1752 dc         1 CLA      0.029400
     88 HAC2       71.3435   58.0607   44.3496 dc         1 CLA      0.029300
     89 HAC1       70.5831   57.8767   42.7568 dc         1 CLA      0.029300
     90 HAA2       77.5895   56.6972   34.0267 dc         1 CLA      0.028700
     91 HAA1       78.2097   58.2211   34.3905 dc         1 CLA      0.028700
     92 H203       84.6001   58.7192   45.9441 dc         1 CLA      0.065600
     93 H202       84.6418   60.1572   46.9622 dc         1 CLA      0.065600
     94 H201       83.7025   58.5555   47.4024 dc         1 CLA      0.065600
     95 H193       82.2780   61.4126   47.2704 dc         1 CLA      0.065600
     96 H192       80.7914   60.8509   46.6634 dc         1 CLA      0.065600
     97 H191       81.4629   59.9013   47.8589 dc         1 CLA      0.065600
     98 H172       80.8402   58.7536   45.3347 dc         1 CLA      0.027600
     99 H171       81.8768   57.6776   46.1237 dc         1 CLA      0.027600
    100 H162       83.2780   57.7903   43.9783 dc         1 CLA      0.002900
    101 H161       81.9488   58.7848   43.2328 dc         1 CLA      0.002900
    102 H152       80.3660   56.8986   43.7024 dc         1 CLA      0.029100
    103 H151       81.8776   56.0392   44.2865 dc         1 CLA      0.029100
    104 H143       81.4469   57.9094   40.8268 dc         1 CLA      0.063600
    105 H142       80.8577   56.3180   40.2261 dc         1 CLA      0.063600
    106 H141       79.8875   57.2251   41.2465 dc         1 CLA      0.063600
    107 H122       83.6774   55.5197   42.6423 dc         1 CLA      0.032500
    108 H121       83.6769   57.0403   41.7240 dc         1 CLA      0.032500
    109 H112       82.9365   55.7444   39.6839 dc         1 CLA      0.006600
    110 H111       82.9620   54.2750   40.7640 dc         1 CLA      0.006600
    111 H102       85.2999   54.3519   41.0580 dc         1 CLA      0.024100
    112 H101       85.4874   55.9052   40.4788 dc         1 CLA      0.024100
    113 HHD        71.7858   56.6558   40.6674 da         1 CLA      0.174300
    114 HHC        76.0799   60.5648   43.3577 da         1 CLA      0.136800
    115 HHB        80.2436   59.2661   38.8996 da         1 CLA      0.138300
    116 HBD        75.4570   56.0732   34.7125 dc         1 CLA      0.107700
    117 HAB        77.6680   62.3599   43.7705 da         1 CLA      0.155200
    118 H93        87.4267   53.7888   39.1882 dc         1 CLA      0.069500
    119 H92        87.1301   54.6643   37.6767 dc         1 CLA      0.069500
    120 H91        87.2448   55.6476   39.1616 dc         1 CLA      0.069500
    121 H8         84.9848   55.3582   38.2761 dc         1 CLA      0.029300
    122 H72        85.2327   52.3500   39.0302 dc         1 CLA      0.044400
    123 H71        85.5179   52.8700   37.4794 dc         1 CLA      0.044400
    124 H62        82.9309   54.0779   37.7866 dc         1 CLA      0.015600
    125 H61        82.7744   52.7315   38.9423 dc         1 CLA      0.015600
    126 H52        83.3275   50.9806   37.1050 dc         1 CLA      0.033200
    127 H51        83.2911   52.2899   35.9163 dc         1 CLA      0.033200
    128 H43        81.2114   49.8889   36.9835 dc         1 CLA      0.037000
    129 H42        81.1187   50.5972   38.4939 dc         1 CLA      0.037000
    130 H41        79.7822   50.7382   37.2213 dc         1 CLA      0.037000
    131 H3A        79.7192   58.4982   36.1698 dc         1 CLA      0.041100
    132 H2A        78.6446   55.7716   36.1343 dc         1 CLA      0.083100
    133 H2         80.5945   53.8125   37.2467 da         1 CLA      0.180900
    134 H18        82.9217   60.4500   45.2722 dc         1 CLA     -0.003900
    135 H13        81.1455   55.3126   42.2338 dc         1 CLA      0.019700
    136 H12        79.4540   52.9951   34.8595 dc         1 CLA      0.120400
    137 H11        81.1282   52.9192   34.1666 dc         1 CLA      0.120400
    138 C1         67.8758   61.0043   50.3520 Z1         2 LUT      0.509236
    139 C2         66.4812   60.6505   51.0284 Z2         2 LUT     -0.434695
    140 C3         65.6227   61.8527   51.2912 Z3         2 LUT      0.437453
    141 O3         65.4340   62.1255   52.6920 S1         2 LUT     -0.547129
    142 C4         66.0624   63.1539   50.5035 Z4         2 LUT     -0.468603
    143 C5         66.7763   62.9893   49.2266 Z5         2 LUT      0.279246
    144 C6         67.6450   61.9495   49.1046 Z6         2 LUT     -0.305473
    145 C7         67.9168   61.4048   47.7707 Z7         2 LUT      0.069402
    146 C8         68.9340   61.8040   46.9112 Z8         2 LUT     -0.191631
    147 C9         69.2932   61.4134   45.5928 Z9         2 LUT      0.196698
    148 C10        70.2452   62.1041   44.9024 Y1         2 LUT     -0.208611
    149 C11        70.9719   61.7627   43.7017 Y2         2 LUT      0.030784
    150 C12        72.0547   62.3761   43.2317 Y3         2 LUT     -0.220316
    151 C13        72.9810   62.2306   42.1279 Y4         2 LUT      0.215937
    152 C14        74.1024   63.0286   42.1827 Y5         2 LUT     -0.185793
    153 C15        75.1728   63.0100   41.2877 Y6         2 LUT     -0.057835
    154 C16        68.4648   59.5329   49.9924 Y7         2 LUT     -0.405615
    155 C17        68.8577   61.6352   51.3629 Y7         2 LUT     -0.405615
    156 C18        66.2354   63.7644   48.0585 Y9         2 LUT     -0.369639
    157 C19        68.5683   60.3114   44.9849 W1         2 LUT     -0.333362
    158 C20        72.4092   61.8006   40.7869 W2         2 LUT     -0.323439
    159 C21        86.7723   64.6671   35.6540 Z1         2 LUT      0.406104
    160 C22        87.7192   64.3631   34.4990 Z2         2 LUT     -0.404965
    161 C23        88.0804   65.4558   33.4043 Z3         2 LUT      0.391255
    162 O23        88.7222   64.9684   32.2121 S1         2 LUT     -0.528210
    163 C24        86.7620   66.1984   33.0549 W6         2 LUT     -0.258361
    164 C25        85.6800   66.2348   33.8160 Z5         2 LUT      0.133546
    165 C26        85.5051   65.2576   35.1029 W8         2 LUT     -0.147008
    166 C27        84.4267   65.7386   36.0979 Z7         2 LUT      0.023843
    167 C28        83.4318   65.0330   36.7269 Z8         2 LUT     -0.216987
    168 C29        82.6747   65.5727   37.8459 Z9         2 LUT      0.206524
    169 C30        81.5302   64.9732   38.1949 Y1         2 LUT     -0.215556
    170 C31        80.7528   65.0651   39.3599 Y2         2 LUT      0.025142
    171 C32        79.5701   64.4263   39.5821 Y3         2 LUT     -0.212209
    172 C33        78.5966   64.5293   40.6776 Y4         2 LUT      0.240937
    173 C34        77.4416   63.7467   40.5784 Y5         2 LUT     -0.218862
    174 C35        76.2317   63.8581   41.3571 Y6         2 LUT     -0.023547
    175 C36        87.5696   65.8021   36.4265 Y7         2 LUT     -0.393485
    176 C37        86.5026   63.5377   36.7204 Y7         2 LUT     -0.393485
    177 C38        84.4418   66.9318   33.2938 Y9         2 LUT     -0.387526
    178 C39        83.2459   66.7592   38.6373 W1         2 LUT     -0.322618
    179 C40        78.7629   65.7345   41.5992 W2         2 LUT     -0.358472
    180 H403       79.7679   66.0422   41.8493 R7         2 LUT      0.097720
    181 H402       78.2567   66.6516   41.3825 R7         2 LUT      0.097720
    182 H401       78.2802   65.5097   42.5764 R7         2 LUT      0.097720
    183 H393       84.3517   66.5945   38.9467 R4         2 LUT      0.082505
    184 H392       83.2994   67.5722   37.9033 R4         2 LUT      0.082505
    185 H391       82.7007   67.0903   39.5802 R4         2 LUT      0.082505
    186 H383       84.3542   67.9808   33.4788 R1         2 LUT      0.104030
    187 H382       84.4075   67.0675   32.2187 R1         2 LUT      0.104030
    188 H381       83.5285   66.3710   33.5161 R1         2 LUT      0.104030
    189 H373       87.4525   63.0380   36.7912 T4         2 LUT      0.089537
    190 H372       86.1919   63.7923   37.7287 T4         2 LUT      0.089537
    191 H371       85.7303   62.9122   36.3920 T4         2 LUT      0.089537
    192 H363       87.0065   66.1689   37.2853 T4         2 LUT      0.089537
    193 H362       88.5327   65.4136   36.8022 T4         2 LUT      0.089537
    194 H361       87.7626   66.6688   35.8295 T4         2 LUT      0.089537
    195 H222       88.5902   63.8186   34.9071 U2         2 LUT      0.127376
    196 H221       87.1687   63.6238   33.9657 U2         2 LUT      0.127376
    197 H203       71.3589   61.4415   40.9557 R7         2 LUT      0.087068
    198 H202       72.3832   62.5275   40.0433 R7         2 LUT      0.087068
    199 H201       72.9469   60.9859   40.3180 R7         2 LUT      0.087068
    200 H193       69.1209   59.8035   44.1991 R4         2 LUT      0.089716
    201 H192       68.2285   59.4492   45.5539 R4         2 LUT      0.089716
    202 H191       67.7680   60.8156   44.4627 R4         2 LUT      0.089716
    203 H183       65.8136   63.0310   47.3975 R1         2 LUT      0.094572
    204 H182       65.3958   64.4565   48.2982 R1         2 LUT      0.094572
    205 H181       66.9960   64.3429   47.5947 R1         2 LUT      0.094572
    206 H173       68.9279   62.6725   51.1350 T4         2 LUT      0.093752
    207 H172       68.4609   61.6470   52.4137 T4         2 LUT      0.093752
    208 H171       69.8757   61.1546   51.3634 T4         2 LUT      0.093752
    209 H163       68.4093   58.8856   50.8484 T4         2 LUT      0.093752
    210 H162       67.9132   59.0516   49.1808 T4         2 LUT      0.093752
    211 H161       69.5156   59.5646   49.7630 T4         2 LUT      0.093752
    212 HO3        64.7413   61.6075   53.2011 Q1         2 LUT      0.300121
    213 H8         69.5849   62.6081   47.3615 U7         2 LUT      0.080784
    214 H7         67.1512   60.6791   47.4888 U6         2 LUT      0.042190
    215 H42        65.2003   63.7942   50.4698 U5         2 LUT      0.145166
    216 H41        66.6946   63.6958   51.1696 U5         2 LUT      0.145166
    217 H35        76.1404   64.5896   42.0867 T3         2 LUT      0.077919
    218 H34        77.3976   63.1112   39.7196 T2         2 LUT      0.073626
    219 H32        79.1395   63.8756   38.7422 T1         2 LUT      0.092510
    220 H31        81.0776   65.8186   40.1061 U9         2 LUT      0.070048
    221 H30        81.2734   64.1140   37.6072 U8         2 LUT      0.085442
    222 H3         64.6204   61.5358   50.7884 U3         2 LUT     -0.031596
    223 H28        83.0706   64.1846   36.2551 U7         2 LUT      0.084728
    224 H27        84.5775   66.7716   36.3422 U6         2 LUT      0.087291
    225 H26        84.9683   64.5633   34.4879 Q6         2 LUT      0.075325
    226 H24        86.7674   66.8405   32.2282 Q5         2 LUT      0.094482
    227 H23        88.7989   66.0892   33.8962 U3         2 LUT     -0.024869
    228 H22        65.9388   59.9580   50.3412 U2         2 LUT      0.127376
    229 H21        66.6949   60.2570   51.9565 U2         2 LUT      0.127376
    230 H15        75.1606   62.2485   40.4461 T3         2 LUT      0.093200
    231 H14        74.2949   63.6862   43.1218 T2         2 LUT      0.068865
    232 H12        72.2803   63.1832   43.9111 T1         2 LUT      0.095507
    233 H11        70.6167   60.9329   43.1446 U9         2 LUT      0.068930
    234 H10        70.6960   62.9635   45.4258 U8         2 LUT      0.083911
    235 H1         88.0749   64.4924   31.6600 Q1         2 LUT      0.297311
@<TRIPOS>BOND
    1     6     1 1
    2     7     2 1
    3     8     3 1
    4     9     4 1
    5    11     4 1
    6    12     6 1
    7    13     9 1
    8    16     9 1
    9    25     5 1
   10    25    16 1
   11    26    10 1
   12    26    17 1
   13    27    18 1
   14    28    14 1
   15    28    19 1
   16    29    12 1
   17    30    13 1
   18    31    24 1
   19    32     1 1
   20    32    25 1
   21    33    21 1
   22    33    26 1
   23    34    22 1
   24    34    27 1
   25    35    23 1
   26    35    28 1
   27    36    12 1
   28    36    24 1
   29    37    13 1
   30    37    15 1
   31    38    31 1
   32    39    20 1
   33    39    32 1
   34    40     2 1
   35    40    33 1
   36    41     3 1
   37    41    34 1
   38    42     4 1
   39    42    35 1
   40    43    38 1
   41    44     5 1
   42    44    17 1
   43    44    39 1
   44    45    10 1
   45    45    18 1
   46    45    40 1
   47    46    19 1
   48    46    41 1
   49    47    14 1
   50    47    16 1
   51    47    42 1
   52    48    38 1
   53    49    48 1
   54    50    49 1
   55    51    50 1
   56    52    51 1
   57    53    51 1
   58    54    53 1
   59    55    54 1
   60    56    55 1
   61    57    56 1
   62    58    56 1
   63    59    58 1
   64    60    59 1
   65    61    60 1
   66    62    61 1
   67    63    61 1
   68    64    27 1
   69    64    46 1
   70    65     5 1
   71    65    10 1
   72    65    64 1
   73    65    14 1
   74    66    23 1
   75    67    23 1
   76    68    23 1
   77    69    22 1
   78    70    22 1
   79    71    22 1
   80    72    21 1
   81    73    21 1
   82    74    21 1
   83    75    20 1
   84    76    20 1
   85    77    20 1
   86    78    15 1
   87    79    15 1
   88    80    15 1
   89    81     8 1
   90    82     8 1
   91    83     8 1
   92    84     7 1
   93    85     7 1
   94    86     6 1
   95    87     6 1
   96    88     3 1
   97    89     3 1
   98    90     1 1
   99    91     1 1
  100    92    63 1
  101    93    63 1
  102    94    63 1
  103    95    62 1
  104    96    62 1
  105    97    62 1
  106    98    60 1
  107    99    60 1
  108   100    59 1
  109   101    59 1
  110   102    58 1
  111   103    58 1
  112   104    57 1
  113   105    57 1
  114   106    57 1
  115   107    55 1
  116   108    55 1
  117   109    54 1
  118   110    54 1
  119   111    53 1
  120   112    53 1
  121   113    19 1
  122   114    18 1
  123   115    17 1
  124   116     9 1
  125   117     2 1
  126   118    52 1
  127   119    52 1
  128   120    52 1
  129   121    51 1
  130   122    50 1
  131   123    50 1
  132   124    49 1
  133   125    49 1
  134   126    48 1
  135   127    48 1
  136   128    43 1
  137   129    43 1
  138   130    43 1
  139   131    39 1
  140   132    32 1
  141   133    31 1
  142   134    61 1
  143   135    56 1
  144   136    24 1
  145   137    24 1
  146   139   138 1
  147   140   139 1
  148   141   140 1
  149   142   140 1
  150   143   142 1
  151   144   138 1
  152   144   143 1
  153   145   144 1
  154   146   145 1
  155   147   146 1
  156   148   147 1
  157   149   148 1
  158   150   149 1
  159   151   150 1
  160   152   151 1
  161   153   152 1
  162   154   138 1
  163   155   138 1
  164   156   143 1
  165   157   147 1
  166   158   151 1
  167   160   159 1
  168   161   160 1
  169   162   161 1
  170   163   161 1
  171   164   163 1
  172   165   159 1
  173   165   164 1
  174   166   165 1
  175   167   166 1
  176   168   167 1
  177   169   168 1
  178   170   169 1
  179   171   170 1
  180   172   171 1
  181   173   172 1
  182   174   153 1
  183   174   173 1
  184   175   159 1
  185   176   159 1
  186   177   164 1
  187   178   168 1
  188   179   172 1
  189   180   179 1
  190   181   179 1
  191   182   179 1
  192   183   178 1
  193   184   178 1
  194   185   178 1
  195   186   177 1
  196   187   177 1
  197   188   177 1
  198   189   176 1
  199   190   176 1
  200   191   176 1
  201   192   175 1
  202   193   175 1
  203   194   175 1
  204   195   160 1
  205   196   160 1
  206   197   158 1
  207   198   158 1
  208   199   158 1
  209   200   157 1
  210   201   157 1
  211   202   157 1
  212   203   156 1
  213   204   156 1
  214   205   156 1
  215   206   155 1
  216   207   155 1
  217   208   155 1
  218   209   154 1
  219   210   154 1
  220   211   154 1
  221   212   141 1
  222   213   146 1
  223   214   145 1
  224   215   142 1
  225   216   142 1
  226   217   174 1
  227   218   173 1
  228   219   171 1
  229   220   170 1
  230   221   169 1
  231   222   140 1
  232   223   167 1
  233   224   166 1
  234   225   165 1
  235   226   163 1
  236   227   161 1
  237   228   139 1
  238   229   139 1
  239   230   153 1
  240   231   152 1
  241   232   150 1
  242   233   149 1
  243   234   148 1
  244   235   162 1
  245   65    153 1
  246   65    174 1
@<TRIPOS>SUBSTRUCTURE
      1 CLA               1 ****               0 ****  **** 
      2 LUT             138 ****               0 ****  **** 
