@<TRIPOS>MOLECULE
Cpptraj generated mol2 file.
  235   246     2     0     0
SMALL
USER_CHARGES


@<TRIPOS>ATOM
      1 CAA        77.9110   57.2544   34.4496 a2         1 CLA     -0.055900
      2 CAB        77.1115   61.3103   43.4033 c8         1 CLA     -0.148500
      3 CAC        70.5215   56.7863   42.4316 a2         1 CLA     -0.012600
      4 CAD        73.7424   54.7723   35.2922 ck         1 CLA      0.398800
      5 NA         76.8045   57.5210   37.8502 ns         1 CLA     -0.225500
      6 CBA        79.1795   57.0222   33.5831 a2         1 CLA     -0.135000
      7 CBB        78.1671   61.3508   44.2134 c0         1 CLA     -0.395200
      8 CBC        70.9750   55.3841   42.7438 a3         1 CLA     -0.037700
      9 CBD        75.2017   55.2372   35.1405 a1         1 CLA     -0.053900
     10 NB         76.3629   59.1378   40.4158 nm         1 CLA     -0.295700
     11 OBD        73.1031   54.1739   34.4336 o2         1 CLA     -0.494600
     12 CGA        79.8100   55.6486   33.3646 c4         1 CLA      0.827000
     13 CGD        76.1347   54.1174   34.8276 c4         1 CLA      0.655300
     14 ND         73.9520   56.6776   38.2072 nm         1 CLA     -0.291600
     15 CED        76.8655   51.8475   35.2676 a3         1 CLA      0.005400
     16 CHA        75.5032   56.1526   36.3551 cs         1 CLA     -0.123800
     17 CHB        78.3727   59.0191   38.9568 aa         1 CLA     -0.291900
     18 CHC        74.8655   59.4345   42.3415 aa         1 CLA     -0.090400
     19 CHD        72.0096   56.4901   39.6391 aa         1 CLA     -0.052000
     20 CMA        80.3147   57.3012   37.0604 a3         1 CLA     -0.230700
     21 CMB        79.5765   60.9509   41.2064 a3         1 CLA     -0.180800
     22 CMC        72.3439   58.7650   44.3365 a3         1 CLA     -0.134000
     23 CMD        70.9799   54.3463   37.3965 a3         1 CLA     -0.141100
     24 C1         80.9125   53.8159   34.3790 a2         1 CLA      0.023000
     25 C1A        76.7137   56.8502   36.6562 ac         1 CLA     -0.015100
     26 C1B        77.6314   59.4931   40.1065 cr         1 CLA      0.054700
     27 C1C        73.7099   58.7376   41.9470 cn         1 CLA     -0.005600
     28 C1D        72.6690   56.1592   38.5067 ap         1 CLA     -0.047300
     29 O1A        79.7267   54.9898   32.3234 o2         1 CLA     -0.610800
     30 O1D        76.9241   54.1283   33.8800 o2         1 CLA     -0.558200
     31 C2         80.8060   53.5735   35.8790 c8         1 CLA     -0.325100
     32 C2A        78.0193   56.8663   35.9023 a1         1 CLA      0.098600
     33 C2B        78.1879   60.3282   41.1710 cb         1 CLA      0.088500
     34 C2C        72.4801   58.4752   42.7700 cb         1 CLA      0.053700
     35 C2D        72.2256   55.2304   37.4390 cb         1 CLA      0.058900
     36 O2A        80.4860   55.1822   34.4576 o1         1 CLA     -0.437200
     37 O2D        76.1047   53.0494   35.6968 o1         1 CLA     -0.357600
     38 C3         81.5813   52.8053   36.6954 c5         1 CLA      0.031200
     39 C3A        78.9208   57.8172   36.7309 a1         1 CLA      0.166800
     40 C3B        77.1696   60.5078   42.0722 cb         1 CLA      0.035000
     41 C3C        71.6923   57.5729   41.9901 cb         1 CLA     -0.089900
     42 C3D        73.2780   55.3141   36.5468 cb         1 CLA     -0.035900
     43 C4         81.2138   51.3904   37.0172 a3         1 CLA     -0.053300
     44 C4A        78.0155   58.1157   37.9096 ac         1 CLA      0.001800
     45 C4B        76.0597   59.6104   41.6779 cn         1 CLA     -0.020900
     46 C4C        72.4102   57.3950   40.6933 cr         1 CLA     -0.044400
     47 C4D        74.3219   56.0892   37.1250 c6         1 CLA     -0.046000
     48 C5         82.5475   53.3807   37.6760 a2         1 CLA     -0.070400
     49 C6         83.2632   54.7059   37.3638 a2         1 CLA      0.043900
     50 C7         84.2549   55.0759   38.4592 a2         1 CLA     -0.150000
     51 C8         84.9105   56.4351   38.4707 a1         1 CLA      0.064200
     52 C9         86.0671   56.5188   37.5103 a3         1 CLA     -0.259300
     53 C10        85.2813   57.0132   39.8152 a2         1 CLA     -0.071900
     54 C11        84.0415   57.5172   40.6257 a2         1 CLA      0.014500
     55 C12        84.3431   58.4361   41.8612 a2         1 CLA     -0.112100
     56 C13        84.9247   57.6911   43.1627 a1         1 CLA      0.089200
     57 C14        84.0711   56.5745   43.8426 a3         1 CLA     -0.239100
     58 C15        85.5676   58.7890   44.0135 a2         1 CLA     -0.102200
     59 C16        84.7425   60.0087   44.4640 a2         1 CLA      0.023900
     60 C17        83.7990   59.6661   45.6148 a2         1 CLA     -0.105700
     61 C18        82.8706   60.8064   46.1054 a1         1 CLA      0.206800
     62 C19        81.7306   60.8926   45.0908 a3         1 CLA     -0.280100
     63 C20        82.3093   60.6362   47.5434 a3         1 CLA     -0.280100
     64 NC         73.6309   58.0587   40.6843 nx         1 CLA     -0.309200
     65 MG         75.1243   58.0186   39.2051 mg         1 CLA      0.895000
     66 HMD3       70.7106   54.1029   38.3741 dc         1 CLA      0.064300
     67 HMD2       70.2413   54.9003   36.8266 dc         1 CLA      0.064300
     68 HMD1       71.1604   53.3773   36.8082 dc         1 CLA      0.064300
     69 HMC3       71.7180   59.5703   44.4570 dc         1 CLA      0.052100
     70 HMC2       71.8850   57.9524   44.9183 dc         1 CLA      0.052100
     71 HMC1       73.3339   59.0164   44.8431 dc         1 CLA      0.052100
     72 HMB3       79.6555   62.0115   41.4707 dc         1 CLA      0.063600
     73 HMB2       80.2541   60.3188   41.7475 dc         1 CLA      0.063600
     74 HMB1       80.0169   60.9578   40.2094 dc         1 CLA      0.063600
     75 HMA3       80.8486   57.9859   37.7439 dc         1 CLA      0.058300
     76 HMA2       80.2800   56.3810   37.5818 dc         1 CLA      0.058300
     77 HMA1       80.9938   57.1026   36.2862 dc         1 CLA      0.058300
     78 HED3       77.9172   52.0407   35.4919 dc         1 CLA      0.079300
     79 HED2       76.4621   51.0355   35.8412 dc         1 CLA      0.079300
     80 HED1       76.6967   51.7226   34.2026 dc         1 CLA      0.079300
     81 HBC3       71.7109   55.3732   43.5902 dc         1 CLA      0.016300
     82 HBC2       70.1584   54.7384   43.0967 dc         1 CLA      0.016300
     83 HBC1       71.3818   54.8140   41.8942 dc         1 CLA      0.016300
     84 HBB2       78.1032   61.8647   45.1686 da         1 CLA      0.183000
     85 HBB1       79.1185   60.8970   43.8882 da         1 CLA      0.183000
     86 HBA2       79.1123   57.4287   32.6021 dc         1 CLA      0.029400
     87 HBA1       79.9371   57.6287   33.9262 dc         1 CLA      0.029400
     88 HAC2       70.0999   57.2721   43.3209 dc         1 CLA      0.029300
     89 HAC1       69.8355   56.7157   41.6383 dc         1 CLA      0.029300
     90 HAA2       77.0915   56.6729   33.9877 dc         1 CLA      0.028700
     91 HAA1       77.5576   58.2725   34.4022 dc         1 CLA      0.028700
     92 H203       81.6530   59.7935   47.6403 dc         1 CLA      0.065600
     93 H202       83.2486   60.4996   48.1891 dc         1 CLA      0.065600
     94 H201       81.7346   61.4682   47.9283 dc         1 CLA      0.065600
     95 H193       81.1026   61.7544   45.3125 dc         1 CLA      0.065600
     96 H192       81.9290   60.9713   44.0398 dc         1 CLA      0.065600
     97 H191       81.0926   60.0205   45.2927 dc         1 CLA      0.065600
     98 H172       83.1942   58.7220   45.4932 dc         1 CLA      0.027600
     99 H171       84.5252   59.4137   46.3988 dc         1 CLA      0.027600
    100 H162       85.4668   60.7040   44.7962 dc         1 CLA      0.002900
    101 H161       84.1749   60.3795   43.5949 dc         1 CLA      0.002900
    102 H152       86.0739   58.4365   44.9837 dc         1 CLA      0.029100
    103 H151       86.4640   59.1979   43.4631 dc         1 CLA      0.029100
    104 H143       83.1603   56.9016   44.2921 dc         1 CLA      0.063600
    105 H142       83.8603   55.7481   43.2233 dc         1 CLA      0.063600
    106 H141       84.6796   56.3035   44.7090 dc         1 CLA      0.063600
    107 H122       85.2074   59.1068   41.6458 dc         1 CLA      0.032500
    108 H121       83.3925   58.9706   42.0953 dc         1 CLA      0.032500
    109 H112       83.4170   58.1220   39.9943 dc         1 CLA      0.006600
    110 H111       83.4208   56.7357   40.9457 dc         1 CLA      0.006600
    111 H102       85.8541   56.2615   40.3024 dc         1 CLA      0.024100
    112 H101       85.9950   57.8168   39.6762 dc         1 CLA      0.024100
    113 HHD        70.9869   56.2181   39.7634 da         1 CLA      0.174300
    114 HHC        74.7307   59.9554   43.2314 da         1 CLA      0.136800
    115 HHB        79.3994   59.3853   38.9189 da         1 CLA      0.138300
    116 HBD        75.0543   55.9252   34.3046 dc         1 CLA      0.107700
    117 HAB        76.1968   61.7969   43.7821 da         1 CLA      0.155200
    118 H93        85.7476   56.1092   36.5162 dc         1 CLA      0.069500
    119 H92        86.4060   57.5360   37.3104 dc         1 CLA      0.069500
    120 H91        86.8899   55.8943   37.8703 dc         1 CLA      0.069500
    121 H8         84.1336   57.1867   38.0951 dc         1 CLA      0.029300
    122 H72        83.7061   55.0074   39.4203 dc         1 CLA      0.044400
    123 H71        84.9796   54.3632   38.6366 dc         1 CLA      0.044400
    124 H62        83.6292   54.4710   36.3743 dc         1 CLA      0.015600
    125 H61        82.5065   55.4152   37.2158 dc         1 CLA      0.015600
    126 H52        81.9682   53.5520   38.6288 dc         1 CLA      0.033200
    127 H51        83.2866   52.6038   38.0019 dc         1 CLA      0.033200
    128 H43        80.2570   51.2222   36.7090 dc         1 CLA      0.037000
    129 H42        81.9360   50.6757   36.6720 dc         1 CLA      0.037000
    130 H41        81.2181   51.2109   38.0978 dc         1 CLA      0.037000
    131 H3A        79.1041   58.7478   36.2284 dc         1 CLA      0.041100
    132 H2A        78.4410   55.8801   35.9071 dc         1 CLA      0.083100
    133 H2         80.0970   54.1763   36.4088 da         1 CLA      0.180900
    134 H18        83.4054   61.7516   45.9998 dc         1 CLA     -0.003900
    135 H13        85.8281   57.1464   42.8996 dc         1 CLA      0.019700
    136 H12        80.1859   53.1605   33.9175 dc         1 CLA      0.120400
    137 H11        81.8315   53.7756   33.7670 dc         1 CLA      0.120400
    138 C1         67.7980   60.4147   49.8294 Z1         2 LUT      0.509236
    139 C2         66.4631   60.3111   50.7027 Z2         2 LUT     -0.434695
    140 C3         65.7362   61.6208   50.8908 Z3         2 LUT      0.437453
    141 O3         65.9452   62.2096   52.1725 S1         2 LUT     -0.547129
    142 C4         66.0987   62.7052   49.9793 Z4         2 LUT     -0.468603
    143 C5         66.5614   62.2943   48.6323 Z5         2 LUT      0.279246
    144 C6         67.3971   61.2144   48.5579 Z6         2 LUT     -0.305473
    145 C7         67.8289   60.6815   47.1922 Z7         2 LUT      0.069402
    146 C8         68.8523   61.2887   46.5673 Z8         2 LUT     -0.191631
    147 C9         69.4432   61.1089   45.1927 Z9         2 LUT      0.196698
    148 C10        70.3927   61.9549   44.7431 Y1         2 LUT     -0.208611
    149 C11        71.1448   61.9713   43.4618 Y2         2 LUT      0.030784
    150 C12        72.2637   62.7439   43.3261 Y3         2 LUT     -0.220316
    151 C13        73.2106   62.6968   42.1300 Y4         2 LUT      0.215937
    152 C14        74.3269   63.4893   42.1737 Y5         2 LUT     -0.185793
    153 C15        75.3899   63.5053   41.1763 Y6         2 LUT     -0.057835
    154 C16        68.4232   59.0819   49.6041 Y7         2 LUT     -0.405615
    155 C17        68.7998   61.3245   50.6186 Y7         2 LUT     -0.405615
    156 C18        66.1708   63.1821   47.4864 Y9         2 LUT     -0.369639
    157 C19        68.7712   59.9430   44.4159 W1         2 LUT     -0.333362
    158 C20        72.6958   62.0053   40.9082 W2         2 LUT     -0.323439
    159 C21        87.0433   64.5679   35.0814 Z1         2 LUT      0.406104
    160 C22        87.9365   64.1461   33.8759 Z2         2 LUT     -0.404965
    161 C23        87.9795   65.1860   32.7865 Z3         2 LUT      0.391255
    162 O23        88.8554   64.8385   31.7557 S1         2 LUT     -0.528210
    163 C24        86.6645   65.9231   32.5182 W6         2 LUT     -0.258361
    164 C25        85.6372   65.8313   33.4332 Z5         2 LUT      0.133546
    165 C26        85.6629   64.9845   34.6702 W8         2 LUT     -0.147008
    166 C27        84.7910   65.5008   35.7531 Z7         2 LUT      0.023843
    167 C28        83.7972   64.9203   36.5277 Z8         2 LUT     -0.216987
    168 C29        83.0683   65.4165   37.7023 Z9         2 LUT      0.206524
    169 C30        81.9331   64.7731   38.1776 Y1         2 LUT     -0.215556
    170 C31        81.0249   65.0590   39.3068 Y2         2 LUT      0.025142
    171 C32        79.8749   64.3122   39.5435 Y3         2 LUT     -0.212209
    172 C33        78.8241   64.6432   40.5525 Y4         2 LUT      0.240937
    173 C34        77.7160   63.9432   40.4659 Y5         2 LUT     -0.218862
    174 C35        76.5950   64.0525   41.4239 Y6         2 LUT     -0.023547
    175 C36        87.8465   65.6904   35.8391 Y7         2 LUT     -0.393485
    176 C37        87.1223   63.2954   36.0201 Y7         2 LUT     -0.393485
    177 C38        84.2392   66.4287   33.1025 Y9         2 LUT     -0.387526
    178 C39        83.5669   66.6912   38.2310 W1         2 LUT     -0.322618
    179 C40        79.3056   65.5857   41.6064 W2         2 LUT     -0.358472
    180 H403       78.8190   65.4778   42.5597 R7         2 LUT      0.097720
    181 H402       80.3206   65.4911   41.8369 R7         2 LUT      0.097720
    182 H401       79.2424   66.6551   41.2922 R7         2 LUT      0.097720
    183 H393       84.6000   66.6668   38.5752 R4         2 LUT      0.082505
    184 H392       83.4768   67.5051   37.5812 R4         2 LUT      0.082505
    185 H391       83.1271   67.0964   39.1815 R4         2 LUT      0.082505
    186 H383       83.4725   65.6842   33.3149 R1         2 LUT      0.104030
    187 H382       84.0316   67.1959   33.8356 R1         2 LUT      0.104030
    188 H381       84.2256   66.9825   32.0673 R1         2 LUT      0.104030
    189 H373       88.1668   62.9672   36.1553 T4         2 LUT      0.089537
    190 H372       86.6833   63.4826   36.9587 T4         2 LUT      0.089537
    191 H371       86.5360   62.4170   35.5981 T4         2 LUT      0.089537
    192 H363       88.7848   65.3278   36.1522 T4         2 LUT      0.089537
    193 H362       87.9329   66.6772   35.3729 T4         2 LUT      0.089537
    194 H361       87.3101   66.0665   36.7206 T4         2 LUT      0.089537
    195 H222       88.9370   63.9827   34.1625 U2         2 LUT      0.127376
    196 H221       87.5716   63.2461   33.3559 U2         2 LUT      0.127376
    197 H203       73.4056   62.0410   40.1081 R7         2 LUT      0.087068
    198 H202       72.5359   60.9688   41.1392 R7         2 LUT      0.087068
    199 H201       71.7327   62.3797   40.5457 R7         2 LUT      0.087068
    200 H193       69.1844   58.9626   44.7736 R4         2 LUT      0.089716
    201 H192       67.6936   59.9682   44.4830 R4         2 LUT      0.089716
    202 H191       68.8528   60.0186   43.3566 R4         2 LUT      0.089716
    203 H183       65.3688   63.8234   47.7891 R1         2 LUT      0.094572
    204 H182       66.9730   63.8280   47.1823 R1         2 LUT      0.094572
    205 H181       65.8665   62.5811   46.6395 R1         2 LUT      0.094572
    206 H173       68.4432   62.2276   51.0318 T4         2 LUT      0.093752
    207 H172       69.3561   60.7900   51.4407 T4         2 LUT      0.093752
    208 H171       69.5712   61.5556   49.9163 T4         2 LUT      0.093752
    209 H163       67.6951   58.4771   49.1447 T4         2 LUT      0.093752
    210 H162       69.3243   59.1080   48.9109 T4         2 LUT      0.093752
    211 H161       68.6382   58.5806   50.5573 T4         2 LUT      0.093752
    212 HO3        65.4148   61.7516   52.8128 Q1         2 LUT      0.300121
    213 H8         69.2738   62.0203   47.2067 U7         2 LUT      0.080784
    214 H7         67.2260   60.0189   46.5951 U6         2 LUT      0.042190
    215 H42        65.1219   63.1801   49.7816 U5         2 LUT      0.145166
    216 H41        66.6728   63.5253   50.3552 U5         2 LUT      0.145166
    217 H35        76.7848   64.6377   42.3370 T3         2 LUT      0.077919
    218 H34        77.5745   63.1098   39.7493 T2         2 LUT      0.073626
    219 H32        79.6248   63.5271   38.8629 T1         2 LUT      0.092510
    220 H31        81.1601   66.0065   39.7283 U9         2 LUT      0.070048
    221 H30        81.7659   63.8607   37.5832 U8         2 LUT      0.085442
    222 H3         64.6859   61.4946   50.8599 U3         2 LUT     -0.031596
    223 H28        83.5452   63.9977   36.1530 U7         2 LUT      0.084728
    224 H27        84.9869   66.5750   35.9233 U6         2 LUT      0.087291
    225 H26        85.1613   64.0343   34.3765 Q6         2 LUT      0.075325
    226 H24        86.4701   66.3966   31.6464 Q5         2 LUT      0.094482
    227 H23        88.5433   65.9633   33.3397 U3         2 LUT     -0.024869
    228 H22        65.7784   59.5551   50.3752 U2         2 LUT      0.127376
    229 H21        66.7535   59.9259   51.6696 U2         2 LUT      0.127376
    230 H15        75.2393   62.9773   40.1922 T3         2 LUT      0.093200
    231 H14        74.6954   63.9133   43.0864 T2         2 LUT      0.068865
    232 H12        72.5663   63.4892   44.1250 T1         2 LUT      0.095507
    233 H11        70.8959   61.2857   42.6744 U9         2 LUT      0.068930
    234 H10        70.8001   62.6594   45.4478 U8         2 LUT      0.083911
    235 H1         88.4462   64.2388   31.1379 Q1         2 LUT      0.297311
@<TRIPOS>BOND
    1     6     1 1
    2     7     2 1
    3     8     3 1
    4     9     4 1
    5    11     4 1
    6    12     6 1
    7    13     9 1
    8    16     9 1
    9    25     5 1
   10    25    16 1
   11    26    10 1
   12    26    17 1
   13    27    18 1
   14    28    14 1
   15    28    19 1
   16    29    12 1
   17    30    13 1
   18    31    24 1
   19    32     1 1
   20    32    25 1
   21    33    21 1
   22    33    26 1
   23    34    22 1
   24    34    27 1
   25    35    23 1
   26    35    28 1
   27    36    12 1
   28    36    24 1
   29    37    13 1
   30    37    15 1
   31    38    31 1
   32    39    20 1
   33    39    32 1
   34    40     2 1
   35    40    33 1
   36    41     3 1
   37    41    34 1
   38    42     4 1
   39    42    35 1
   40    43    38 1
   41    44     5 1
   42    44    17 1
   43    44    39 1
   44    45    10 1
   45    45    18 1
   46    45    40 1
   47    46    19 1
   48    46    41 1
   49    47    14 1
   50    47    16 1
   51    47    42 1
   52    48    38 1
   53    49    48 1
   54    50    49 1
   55    51    50 1
   56    52    51 1
   57    53    51 1
   58    54    53 1
   59    55    54 1
   60    56    55 1
   61    57    56 1
   62    58    56 1
   63    59    58 1
   64    60    59 1
   65    61    60 1
   66    62    61 1
   67    63    61 1
   68    64    27 1
   69    64    46 1
   70    65     5 1
   71    65    10 1
   72    65    64 1
   73    65    14 1
   74    66    23 1
   75    67    23 1
   76    68    23 1
   77    69    22 1
   78    70    22 1
   79    71    22 1
   80    72    21 1
   81    73    21 1
   82    74    21 1
   83    75    20 1
   84    76    20 1
   85    77    20 1
   86    78    15 1
   87    79    15 1
   88    80    15 1
   89    81     8 1
   90    82     8 1
   91    83     8 1
   92    84     7 1
   93    85     7 1
   94    86     6 1
   95    87     6 1
   96    88     3 1
   97    89     3 1
   98    90     1 1
   99    91     1 1
  100    92    63 1
  101    93    63 1
  102    94    63 1
  103    95    62 1
  104    96    62 1
  105    97    62 1
  106    98    60 1
  107    99    60 1
  108   100    59 1
  109   101    59 1
  110   102    58 1
  111   103    58 1
  112   104    57 1
  113   105    57 1
  114   106    57 1
  115   107    55 1
  116   108    55 1
  117   109    54 1
  118   110    54 1
  119   111    53 1
  120   112    53 1
  121   113    19 1
  122   114    18 1
  123   115    17 1
  124   116     9 1
  125   117     2 1
  126   118    52 1
  127   119    52 1
  128   120    52 1
  129   121    51 1
  130   122    50 1
  131   123    50 1
  132   124    49 1
  133   125    49 1
  134   126    48 1
  135   127    48 1
  136   128    43 1
  137   129    43 1
  138   130    43 1
  139   131    39 1
  140   132    32 1
  141   133    31 1
  142   134    61 1
  143   135    56 1
  144   136    24 1
  145   137    24 1
  146   139   138 1
  147   140   139 1
  148   141   140 1
  149   142   140 1
  150   143   142 1
  151   144   138 1
  152   144   143 1
  153   145   144 1
  154   146   145 1
  155   147   146 1
  156   148   147 1
  157   149   148 1
  158   150   149 1
  159   151   150 1
  160   152   151 1
  161   153   152 1
  162   154   138 1
  163   155   138 1
  164   156   143 1
  165   157   147 1
  166   158   151 1
  167   160   159 1
  168   161   160 1
  169   162   161 1
  170   163   161 1
  171   164   163 1
  172   165   159 1
  173   165   164 1
  174   166   165 1
  175   167   166 1
  176   168   167 1
  177   169   168 1
  178   170   169 1
  179   171   170 1
  180   172   171 1
  181   173   172 1
  182   174   153 1
  183   174   173 1
  184   175   159 1
  185   176   159 1
  186   177   164 1
  187   178   168 1
  188   179   172 1
  189   180   179 1
  190   181   179 1
  191   182   179 1
  192   183   178 1
  193   184   178 1
  194   185   178 1
  195   186   177 1
  196   187   177 1
  197   188   177 1
  198   189   176 1
  199   190   176 1
  200   191   176 1
  201   192   175 1
  202   193   175 1
  203   194   175 1
  204   195   160 1
  205   196   160 1
  206   197   158 1
  207   198   158 1
  208   199   158 1
  209   200   157 1
  210   201   157 1
  211   202   157 1
  212   203   156 1
  213   204   156 1
  214   205   156 1
  215   206   155 1
  216   207   155 1
  217   208   155 1
  218   209   154 1
  219   210   154 1
  220   211   154 1
  221   212   141 1
  222   213   146 1
  223   214   145 1
  224   215   142 1
  225   216   142 1
  226   217   174 1
  227   218   173 1
  228   219   171 1
  229   220   170 1
  230   221   169 1
  231   222   140 1
  232   223   167 1
  233   224   166 1
  234   225   165 1
  235   226   163 1
  236   227   161 1
  237   228   139 1
  238   229   139 1
  239   230   153 1
  240   231   152 1
  241   232   150 1
  242   233   149 1
  243   234   148 1
  244   235   162 1
  245   65    153 1
  246   65    174 1
@<TRIPOS>SUBSTRUCTURE
      1 CLA               1 ****               0 ****  **** 
      2 LUT             138 ****               0 ****  **** 
