@<TRIPOS>MOLECULE
Cpptraj generated mol2 file.
  235   246     2     0     0
SMALL
USER_CHARGES


@<TRIPOS>ATOM
      1 CAA        76.6656   57.4015   34.4155 a2         1 CLA     -0.055900
      2 CAB        77.2668   61.9259   43.1337 c8         1 CLA     -0.148500
      3 CAC        70.0690   58.0068   43.0252 a2         1 CLA     -0.012600
      4 CAD        72.6389   54.8141   35.9996 ck         1 CLA      0.398800
      5 NA         75.8538   57.9940   37.9037 ns         1 CLA     -0.225500
      6 CBA        77.8753   57.6879   33.5011 a2         1 CLA     -0.135000
      7 CBB        78.4976   61.9970   43.7873 c0         1 CLA     -0.395200
      8 CBC        70.1269   56.4877   43.4944 a3         1 CLA     -0.037700
      9 CBD        74.1187   55.1909   35.7573 a1         1 CLA     -0.053900
     10 NB         75.7795   59.8122   40.3133 nm         1 CLA     -0.295700
     11 OBD        71.9236   54.0256   35.3854 o2         1 CLA     -0.494600
     12 CGA        78.8259   56.5487   33.0158 c4         1 CLA      0.827000
     13 CGD        75.0538   54.0365   35.8394 c4         1 CLA      0.655300
     14 ND         73.0567   57.2938   38.5997 nm         1 CLA     -0.291600
     15 CED        75.0763   51.8331   36.9826 a3         1 CLA      0.005400
     16 CHA        74.5484   56.2513   36.7708 cs         1 CLA     -0.123800
     17 CHB        77.5489   59.6338   38.6393 aa         1 CLA     -0.291900
     18 CHC        74.6045   60.3068   42.4969 aa         1 CLA     -0.090400
     19 CHD        71.3093   57.3359   40.2759 aa         1 CLA     -0.052000
     20 CMA        79.3705   57.5695   36.9624 a3         1 CLA     -0.230700
     21 CMB        79.1445   61.5458   40.4482 a3         1 CLA     -0.180800
     22 CMC        72.1359   60.0325   44.4692 a3         1 CLA     -0.134000
     23 CMD        69.7800   55.4809   37.9338 a3         1 CLA     -0.141100
     24 C1         80.2745   54.7779   33.9074 a2         1 CLA      0.023000
     25 C1A        75.7136   57.0323   36.8956 ac         1 CLA     -0.015100
     26 C1B        77.0167   60.1562   39.8026 cr         1 CLA      0.054700
     27 C1C        73.4836   59.4659   42.2807 cn         1 CLA     -0.005600
     28 C1D        71.8022   56.8980   39.0863 ap         1 CLA     -0.047300
     29 O1A        79.2172   56.3589   31.8820 o2         1 CLA     -0.610800
     30 O1D        76.1621   53.9437   35.3904 o2         1 CLA     -0.558200
     31 C2         80.4193   53.8385   35.0901 c8         1 CLA     -0.325100
     32 C2A        76.9795   57.0052   35.8940 a1         1 CLA      0.098600
     33 C2B        77.7367   61.0137   40.6861 cb         1 CLA      0.088500
     34 C2C        72.2847   59.3101   43.1819 cb         1 CLA      0.053700
     35 C2D        71.1767   55.9786   38.0826 cb         1 CLA      0.058900
     36 O2A        79.2474   55.8280   34.1659 o1         1 CLA     -0.437200
     37 O2D        74.5030   53.1881   36.7683 o1         1 CLA     -0.357600
     38 C3         81.5623   53.6180   35.7212 c5         1 CLA      0.031200
     39 C3A        77.9185   58.1187   36.5925 a1         1 CLA      0.166800
     40 C3B        76.9747   61.1848   41.8589 cb         1 CLA      0.035000
     41 C3C        71.4101   58.4529   42.5329 cb         1 CLA     -0.089900
     42 C3D        72.2134   55.6428   37.1684 cb         1 CLA     -0.035900
     43 C4         82.7279   52.7163   35.2330 a3         1 CLA     -0.053300
     44 C4A        77.0651   58.5934   37.8421 ac         1 CLA      0.001800
     45 C4B        75.6607   60.4811   41.5306 cn         1 CLA     -0.020900
     46 C4C        71.9502   58.1737   41.2358 cr         1 CLA     -0.044400
     47 C4D        73.3416   56.4613   37.6019 c6         1 CLA     -0.046000
     48 C5         81.6913   54.2259   37.1335 a2         1 CLA     -0.070400
     49 C6         82.4794   55.5935   37.1623 a2         1 CLA      0.043900
     50 C7         82.7391   56.0661   38.6048 a2         1 CLA     -0.150000
     51 C8         83.3163   57.5294   38.7710 a1         1 CLA      0.064200
     52 C9         84.5920   57.5770   37.9492 a3         1 CLA     -0.259300
     53 C10        83.4635   58.0087   40.1870 a2         1 CLA     -0.071900
     54 C11        82.1473   58.2209   40.9832 a2         1 CLA      0.014500
     55 C12        82.3143   59.4175   41.9026 a2         1 CLA     -0.112100
     56 C13        83.5418   59.3612   42.9418 a1         1 CLA      0.089200
     57 C14        83.7129   58.1035   43.8376 a3         1 CLA     -0.239100
     58 C15        83.5414   60.6000   43.8095 a2         1 CLA     -0.102200
     59 C16        82.4604   60.6282   44.9303 a2         1 CLA      0.023900
     60 C17        82.3224   62.0502   45.5584 a2         1 CLA     -0.105700
     61 C18        83.2920   62.5709   46.7036 a1         1 CLA      0.206800
     62 C19        82.6955   63.8657   47.3028 a3         1 CLA     -0.280100
     63 C20        83.3428   61.4851   47.8200 a3         1 CLA     -0.280100
     64 NC         73.1862   58.8290   41.0933 nx         1 CLA     -0.309200
     65 MG         74.3446   58.6021   39.3725 mg         1 CLA      0.895000
     66 HMD3       69.2469   56.3316   37.5262 dc         1 CLA      0.064300
     67 HMD2       69.6867   54.5558   37.3707 dc         1 CLA      0.064300
     68 HMD1       69.4036   55.3427   38.9479 dc         1 CLA      0.064300
     69 HMC3       71.2468   59.9673   45.0159 dc         1 CLA      0.052100
     70 HMC2       72.9223   59.5602   45.0231 dc         1 CLA      0.052100
     71 HMC1       72.4911   61.0777   44.3167 dc         1 CLA      0.052100
     72 HMB3       79.4258   62.2465   41.2496 dc         1 CLA      0.063600
     73 HMB2       79.7340   60.6634   40.5529 dc         1 CLA      0.063600
     74 HMB1       79.1143   61.9481   39.4469 dc         1 CLA      0.063600
     75 HMA3       79.3552   56.5158   37.0881 dc         1 CLA      0.058300
     76 HMA2       79.9858   57.7139   36.1370 dc         1 CLA      0.058300
     77 HMA1       79.7797   58.0685   37.8790 dc         1 CLA      0.058300
     78 HED3       76.1768   51.8130   37.0727 dc         1 CLA      0.079300
     79 HED2       74.6417   51.4155   37.9230 dc         1 CLA      0.079300
     80 HED1       74.8561   51.2150   36.1079 dc         1 CLA      0.079300
     81 HBC3       69.1131   56.0732   43.3401 dc         1 CLA      0.016300
     82 HBC2       70.7065   55.9217   42.7791 dc         1 CLA      0.016300
     83 HBC1       70.4834   56.3692   44.5266 dc         1 CLA      0.016300
     84 HBB2       78.6150   62.5999   44.6014 da         1 CLA      0.183000
     85 HBB1       79.4094   61.4892   43.3401 da         1 CLA      0.183000
     86 HBA2       77.4926   58.2014   32.6061 dc         1 CLA      0.029400
     87 HBA1       78.5830   58.4045   33.9495 dc         1 CLA      0.029400
     88 HAC2       69.7750   58.5693   43.8604 dc         1 CLA      0.029300
     89 HAC1       69.3693   58.0792   42.2889 dc         1 CLA      0.029300
     90 HAA2       76.0238   56.6993   33.8581 dc         1 CLA      0.028700
     91 HAA1       76.0247   58.3348   34.4704 dc         1 CLA      0.028700
     92 H203       83.9109   60.5880   47.4867 dc         1 CLA      0.065600
     93 H202       83.9045   61.9773   48.6356 dc         1 CLA      0.065600
     94 H201       82.3662   61.1678   48.1566 dc         1 CLA      0.065600
     95 H193       82.3689   64.5468   46.5447 dc         1 CLA      0.065600
     96 H192       81.8388   63.7574   47.9505 dc         1 CLA      0.065600
     97 H191       83.3207   64.4329   47.8692 dc         1 CLA      0.065600
     98 H172       82.1866   62.7423   44.7389 dc         1 CLA      0.027600
     99 H171       81.3227   62.0273   46.0802 dc         1 CLA      0.027600
    100 H162       81.4768   60.3639   44.5325 dc         1 CLA      0.002900
    101 H161       82.6929   59.9045   45.7265 dc         1 CLA      0.002900
    102 H152       84.4633   60.5049   44.3472 dc         1 CLA      0.029100
    103 H151       83.4670   61.4736   43.1950 dc         1 CLA      0.029100
    104 H143       82.7904   57.6069   43.9887 dc         1 CLA      0.063600
    105 H142       84.2538   57.2507   43.4632 dc         1 CLA      0.063600
    106 H141       84.0998   58.1869   44.8789 dc         1 CLA      0.063600
    107 H122       82.3051   60.3296   41.3102 dc         1 CLA      0.032500
    108 H121       81.3884   59.5852   42.3378 dc         1 CLA      0.032500
    109 H112       81.3171   58.4433   40.3178 dc         1 CLA      0.006600
    110 H111       81.9958   57.2966   41.6604 dc         1 CLA      0.006600
    111 H102       84.0188   57.3408   40.8458 dc         1 CLA      0.024100
    112 H101       84.0355   58.9397   39.9965 dc         1 CLA      0.024100
    113 HHD        70.3752   56.8967   40.6122 da         1 CLA      0.174300
    114 HHC        74.5760   60.7174   43.4492 da         1 CLA      0.136800
    115 HHB        78.5436   59.9953   38.3635 da         1 CLA      0.138300
    116 HBD        74.1894   55.7050   34.8592 dc         1 CLA      0.107700
    117 HAB        76.4340   62.4094   43.6402 da         1 CLA      0.155200
    118 H93        84.9753   58.6156   38.1447 dc         1 CLA      0.069500
    119 H92        85.3037   56.7896   38.3316 dc         1 CLA      0.069500
    120 H91        84.3453   57.5491   36.8601 dc         1 CLA      0.069500
    121 H8         82.4365   58.1970   38.3639 dc         1 CLA      0.029300
    122 H72        81.7647   56.0351   39.1493 dc         1 CLA      0.044400
    123 H71        83.4634   55.3787   39.0883 dc         1 CLA      0.044400
    124 H62        83.3944   55.4867   36.6155 dc         1 CLA      0.015600
    125 H61        81.8893   56.3231   36.5856 dc         1 CLA      0.015600
    126 H52        80.6667   54.3231   37.5491 dc         1 CLA      0.033200
    127 H51        82.2600   53.4582   37.6907 dc         1 CLA      0.033200
    128 H43        82.3920   52.0883   34.3961 dc         1 CLA      0.037000
    129 H42        83.5179   53.3659   34.8768 dc         1 CLA      0.037000
    130 H41        83.1528   52.0567   35.9966 dc         1 CLA      0.037000
    131 H3A        78.0195   59.0528   35.9803 dc         1 CLA      0.041100
    132 H2A        77.3822   56.0131   36.0870 dc         1 CLA      0.083100
    133 H2         79.4794   53.3760   35.3300 da         1 CLA      0.180900
    134 H18        84.2535   62.7924   46.3118 dc         1 CLA     -0.003900
    135 H13        84.4211   59.4478   42.2679 dc         1 CLA      0.019700
    136 H12        79.9492   54.0926   33.1708 dc         1 CLA      0.120400
    137 H11        81.2450   55.0672   33.5286 dc         1 CLA      0.120400
    138 C1         66.9189   62.5310   49.9595 Z1         2 LUT      0.509236
    139 C2         67.1230   63.8568   50.6032 Z2         2 LUT     -0.434695
    140 C3         65.9457   64.8247   50.7331 Z3         2 LUT      0.437453
    141 O3         66.5091   66.1205   50.9813 S1         2 LUT     -0.547129
    142 C4         65.1234   64.7910   49.4614 Z4         2 LUT     -0.468603
    143 C5         65.6257   63.9604   48.2987 Z5         2 LUT      0.279246
    144 C6         66.3681   62.8475   48.4831 Z6         2 LUT     -0.305473
    145 C7         67.0313   62.2245   47.2368 Z7         2 LUT      0.069402
    146 C8         67.8538   62.7866   46.2519 Z8         2 LUT     -0.191631
    147 C9         68.3474   62.1076   45.0581 Z9         2 LUT      0.196698
    148 C10        69.4036   62.8367   44.5143 Y1         2 LUT     -0.208611
    149 C11        70.1484   62.4700   43.3321 Y2         2 LUT      0.030784
    150 C12        71.1960   63.3101   43.0490 Y3         2 LUT     -0.220316
    151 C13        72.1889   63.2164   42.0212 Y4         2 LUT      0.215937
    152 C14        73.3910   63.9509   42.1446 Y5         2 LUT     -0.185793
    153 C15        74.4328   64.0576   41.1619 Y6         2 LUT     -0.057835
    154 C16        65.8831   61.7715   50.8845 Y7         2 LUT     -0.405615
    155 C17        68.1750   61.7501   50.0412 Y7         2 LUT     -0.405615
    156 C18        65.1402   64.6376   47.0462 Y9         2 LUT     -0.369639
    157 C19        67.7950   60.7742   44.5854 W1         2 LUT     -0.333362
    158 C20        71.9607   62.2995   40.7841 W2         2 LUT     -0.323439
    159 C21        85.9552   64.7155   35.0494 Z1         2 LUT      0.406104
    160 C22        86.8978   64.0965   34.0181 Z2         2 LUT     -0.404965
    161 C23        87.0435   64.8905   32.7029 Z3         2 LUT      0.391255
    162 O23        87.9301   64.2049   31.8261 S1         2 LUT     -0.528210
    163 C24        85.7026   65.4073   32.2282 W6         2 LUT     -0.258361
    164 C25        84.6194   65.6840   33.0432 Z5         2 LUT      0.133546
    165 C26        84.5946   65.1487   34.4838 W8         2 LUT     -0.147008
    166 C27        83.7978   65.9635   35.4646 Z7         2 LUT      0.023843
    167 C28        82.6979   65.4894   36.1515 Z8         2 LUT     -0.216987
    168 C29        82.0067   66.0645   37.2890 Z9         2 LUT      0.206524
    169 C30        80.8548   65.4259   37.7433 Y1         2 LUT     -0.215556
    170 C31        79.8929   65.7896   38.8087 Y2         2 LUT      0.025142
    171 C32        78.7794   65.0877   39.1950 Y3         2 LUT     -0.212209
    172 C33        77.8473   65.3327   40.2653 Y4         2 LUT      0.240937
    173 C34        76.6937   64.5308   40.4053 Y5         2 LUT     -0.218862
    174 C35        75.6756   64.5414   41.4278 Y6         2 LUT     -0.023547
    175 C36        86.7955   65.8741   35.5491 Y7         2 LUT     -0.393485
    176 C37        85.9753   63.7198   36.1764 Y7         2 LUT     -0.393485
    177 C38        83.3950   66.5276   32.5355 Y9         2 LUT     -0.387526
    178 C39        82.4703   67.3309   37.8851 W1         2 LUT     -0.322618
    179 C40        78.2146   66.5669   41.1274 W2         2 LUT     -0.358472
    180 H403       77.5185   66.5738   41.9899 R7         2 LUT      0.097720
    181 H402       79.2768   66.5265   41.4294 R7         2 LUT      0.097720
    182 H401       78.0770   67.4545   40.5383 R7         2 LUT      0.097720
    183 H393       81.6521   67.7374   38.3833 R4         2 LUT      0.082505
    184 H392       83.3015   67.1159   38.5299 R4         2 LUT      0.082505
    185 H391       82.8321   68.0590   37.0653 R4         2 LUT      0.082505
    186 H383       82.4997   65.9179   32.6657 R1         2 LUT      0.104030
    187 H382       83.2186   67.4156   33.1212 R1         2 LUT      0.104030
    188 H381       83.5424   66.8385   31.4640 R1         2 LUT      0.104030
    189 H373       85.2123   64.1233   36.8998 T4         2 LUT      0.089537
    190 H372       85.6048   62.8002   35.7486 T4         2 LUT      0.089537
    191 H371       86.8805   63.3846   36.5724 T4         2 LUT      0.089537
    192 H363       87.0530   66.7023   34.8080 T4         2 LUT      0.089537
    193 H362       86.1825   66.3493   36.2834 T4         2 LUT      0.089537
    194 H361       87.7912   65.6670   36.0082 T4         2 LUT      0.089537
    195 H222       87.9336   64.0930   34.3425 U2         2 LUT      0.127376
    196 H221       86.5833   63.0940   33.6848 U2         2 LUT      0.127376
    197 H203       71.2243   61.4594   40.9406 R7         2 LUT      0.087068
    198 H202       71.5522   62.7571   39.9264 R7         2 LUT      0.087068
    199 H201       72.8473   61.7324   40.4758 R7         2 LUT      0.087068
    200 H193       66.8195   60.9340   44.1372 R4         2 LUT      0.089716
    201 H192       68.3796   60.3562   43.8490 R4         2 LUT      0.089716
    202 H191       67.6028   60.1005   45.4138 R4         2 LUT      0.089716
    203 H183       65.8106   65.5225   46.9658 R1         2 LUT      0.094572
    204 H182       65.2074   63.9576   46.1571 R1         2 LUT      0.094572
    205 H181       64.1084   65.0210   47.2105 R1         2 LUT      0.094572
    206 H173       68.1268   60.9359   49.2678 T4         2 LUT      0.093752
    207 H172       69.1347   62.2746   49.9991 T4         2 LUT      0.093752
    208 H171       68.1586   61.3242   51.0663 T4         2 LUT      0.093752
    209 H163       65.7445   60.7327   50.6182 T4         2 LUT      0.093752
    210 H162       66.3223   61.8371   51.8877 T4         2 LUT      0.093752
    211 H161       64.9355   62.2704   50.8741 T4         2 LUT      0.093752
    212 HO3        65.8739   66.6466   51.3812 Q1         2 LUT      0.300121
    213 H8         68.0592   63.8800   46.5153 U7         2 LUT      0.080784
    214 H7         66.7367   61.1433   47.2437 U6         2 LUT      0.042190
    215 H42        64.1139   64.3569   49.6675 U5         2 LUT      0.145166
    216 H41        64.8882   65.8226   49.1729 U5         2 LUT      0.145166
    217 H35        75.9756   64.9875   42.3316 T3         2 LUT      0.077919
    218 H34        76.5592   63.8205   39.5393 T2         2 LUT      0.073626
    219 H32        78.4527   64.2110   38.7221 T1         2 LUT      0.092510
    220 H31        80.1582   66.7236   39.2979 U9         2 LUT      0.070048
    221 H30        80.5743   64.4652   37.3050 U8         2 LUT      0.085442
    222 H3         65.3278   64.5015   51.6222 U3         2 LUT     -0.031596
    223 H28        82.1955   64.6364   35.7219 U7         2 LUT      0.084728
    224 H27        84.1647   67.0089   35.7411 U6         2 LUT      0.087291
    225 H26        83.9832   64.2175   34.3958 Q6         2 LUT      0.075325
    226 H24        85.6187   65.8255   31.2295 Q5         2 LUT      0.094482
    227 H23        87.6909   65.7547   33.0691 U3         2 LUT     -0.024869
    228 H22        67.5537   63.7301   51.6247 U2         2 LUT      0.127376
    229 H21        67.8648   64.3610   49.9826 U2         2 LUT      0.127376
    230 H15        74.3003   63.5270   40.1886 T3         2 LUT      0.093200
    231 H14        73.5288   64.4113   43.1130 T2         2 LUT      0.068865
    232 H12        71.4511   64.1611   43.6755 T1         2 LUT      0.095507
    233 H11        69.8899   61.5285   42.8130 U9         2 LUT      0.068930
    234 H10        69.6575   63.8039   44.9977 U8         2 LUT      0.083911
    235 H1         87.3687   63.6693   31.2300 Q1         2 LUT      0.297311
@<TRIPOS>BOND
    1     6     1 1
    2     7     2 1
    3     8     3 1
    4     9     4 1
    5    11     4 1
    6    12     6 1
    7    13     9 1
    8    16     9 1
    9    25     5 1
   10    25    16 1
   11    26    10 1
   12    26    17 1
   13    27    18 1
   14    28    14 1
   15    28    19 1
   16    29    12 1
   17    30    13 1
   18    31    24 1
   19    32     1 1
   20    32    25 1
   21    33    21 1
   22    33    26 1
   23    34    22 1
   24    34    27 1
   25    35    23 1
   26    35    28 1
   27    36    12 1
   28    36    24 1
   29    37    13 1
   30    37    15 1
   31    38    31 1
   32    39    20 1
   33    39    32 1
   34    40     2 1
   35    40    33 1
   36    41     3 1
   37    41    34 1
   38    42     4 1
   39    42    35 1
   40    43    38 1
   41    44     5 1
   42    44    17 1
   43    44    39 1
   44    45    10 1
   45    45    18 1
   46    45    40 1
   47    46    19 1
   48    46    41 1
   49    47    14 1
   50    47    16 1
   51    47    42 1
   52    48    38 1
   53    49    48 1
   54    50    49 1
   55    51    50 1
   56    52    51 1
   57    53    51 1
   58    54    53 1
   59    55    54 1
   60    56    55 1
   61    57    56 1
   62    58    56 1
   63    59    58 1
   64    60    59 1
   65    61    60 1
   66    62    61 1
   67    63    61 1
   68    64    27 1
   69    64    46 1
   70    65     5 1
   71    65    10 1
   72    65    64 1
   73    65    14 1
   74    66    23 1
   75    67    23 1
   76    68    23 1
   77    69    22 1
   78    70    22 1
   79    71    22 1
   80    72    21 1
   81    73    21 1
   82    74    21 1
   83    75    20 1
   84    76    20 1
   85    77    20 1
   86    78    15 1
   87    79    15 1
   88    80    15 1
   89    81     8 1
   90    82     8 1
   91    83     8 1
   92    84     7 1
   93    85     7 1
   94    86     6 1
   95    87     6 1
   96    88     3 1
   97    89     3 1
   98    90     1 1
   99    91     1 1
  100    92    63 1
  101    93    63 1
  102    94    63 1
  103    95    62 1
  104    96    62 1
  105    97    62 1
  106    98    60 1
  107    99    60 1
  108   100    59 1
  109   101    59 1
  110   102    58 1
  111   103    58 1
  112   104    57 1
  113   105    57 1
  114   106    57 1
  115   107    55 1
  116   108    55 1
  117   109    54 1
  118   110    54 1
  119   111    53 1
  120   112    53 1
  121   113    19 1
  122   114    18 1
  123   115    17 1
  124   116     9 1
  125   117     2 1
  126   118    52 1
  127   119    52 1
  128   120    52 1
  129   121    51 1
  130   122    50 1
  131   123    50 1
  132   124    49 1
  133   125    49 1
  134   126    48 1
  135   127    48 1
  136   128    43 1
  137   129    43 1
  138   130    43 1
  139   131    39 1
  140   132    32 1
  141   133    31 1
  142   134    61 1
  143   135    56 1
  144   136    24 1
  145   137    24 1
  146   139   138 1
  147   140   139 1
  148   141   140 1
  149   142   140 1
  150   143   142 1
  151   144   138 1
  152   144   143 1
  153   145   144 1
  154   146   145 1
  155   147   146 1
  156   148   147 1
  157   149   148 1
  158   150   149 1
  159   151   150 1
  160   152   151 1
  161   153   152 1
  162   154   138 1
  163   155   138 1
  164   156   143 1
  165   157   147 1
  166   158   151 1
  167   160   159 1
  168   161   160 1
  169   162   161 1
  170   163   161 1
  171   164   163 1
  172   165   159 1
  173   165   164 1
  174   166   165 1
  175   167   166 1
  176   168   167 1
  177   169   168 1
  178   170   169 1
  179   171   170 1
  180   172   171 1
  181   173   172 1
  182   174   153 1
  183   174   173 1
  184   175   159 1
  185   176   159 1
  186   177   164 1
  187   178   168 1
  188   179   172 1
  189   180   179 1
  190   181   179 1
  191   182   179 1
  192   183   178 1
  193   184   178 1
  194   185   178 1
  195   186   177 1
  196   187   177 1
  197   188   177 1
  198   189   176 1
  199   190   176 1
  200   191   176 1
  201   192   175 1
  202   193   175 1
  203   194   175 1
  204   195   160 1
  205   196   160 1
  206   197   158 1
  207   198   158 1
  208   199   158 1
  209   200   157 1
  210   201   157 1
  211   202   157 1
  212   203   156 1
  213   204   156 1
  214   205   156 1
  215   206   155 1
  216   207   155 1
  217   208   155 1
  218   209   154 1
  219   210   154 1
  220   211   154 1
  221   212   141 1
  222   213   146 1
  223   214   145 1
  224   215   142 1
  225   216   142 1
  226   217   174 1
  227   218   173 1
  228   219   171 1
  229   220   170 1
  230   221   169 1
  231   222   140 1
  232   223   167 1
  233   224   166 1
  234   225   165 1
  235   226   163 1
  236   227   161 1
  237   228   139 1
  238   229   139 1
  239   230   153 1
  240   231   152 1
  241   232   150 1
  242   233   149 1
  243   234   148 1
  244   235   162 1
  245   65    153 1
  246   65    174 1
@<TRIPOS>SUBSTRUCTURE
      1 CLA               1 ****               0 ****  **** 
      2 LUT             138 ****               0 ****  **** 
