@<TRIPOS>MOLECULE
Cpptraj generated mol2 file.
  235   246     2     0     0
SMALL
USER_CHARGES


@<TRIPOS>ATOM
      1 CAA        80.0952   58.3772   35.1080 a2         1 CLA     -0.055900
      2 CAB        80.2790   62.1771   44.0981 c8         1 CLA     -0.148500
      3 CAC        73.2509   58.2876   43.4233 a2         1 CLA     -0.012600
      4 CAD        76.1914   55.6362   36.2740 ck         1 CLA      0.398800
      5 NA         79.2290   58.9010   38.4022 ns         1 CLA     -0.225500
      6 CBA        81.3011   58.1762   34.1549 a2         1 CLA     -0.135000
      7 CBB        81.4471   62.2891   44.7682 c0         1 CLA     -0.395200
      8 CBC        73.4467   57.1856   44.3523 a3         1 CLA     -0.037700
      9 CBD        77.6909   56.1440   36.0336 a1         1 CLA     -0.053900
     10 NB         79.0221   60.5024   40.9331 nm         1 CLA     -0.295700
     11 OBD        75.6301   54.7374   35.6404 o2         1 CLA     -0.494600
     12 CGA        81.7973   56.6956   33.9876 c4         1 CLA      0.827000
     13 CGD        78.7454   55.0722   36.0359 c4         1 CLA      0.655300
     14 ND         76.5094   57.8559   39.0933 nm         1 CLA     -0.291600
     15 CED        79.0105   52.7969   36.7810 a3         1 CLA      0.005400
     16 CHA        77.9246   57.2315   37.0806 cs         1 CLA     -0.123800
     17 CHB        80.9484   60.2323   39.4191 aa         1 CLA     -0.291900
     18 CHC        77.6060   60.7834   42.9026 aa         1 CLA     -0.090400
     19 CHD        74.7603   57.4507   40.7960 aa         1 CLA     -0.052000
     20 CMA        82.6511   58.1417   37.9451 a3         1 CLA     -0.230700
     21 CMB        82.4142   61.9937   41.6166 a3         1 CLA     -0.180800
     22 CMC        75.2621   60.4062   44.9018 a3         1 CLA     -0.134000
     23 CMD        73.3920   55.9272   38.3836 a3         1 CLA     -0.141100
     24 C1         83.1400   55.0279   34.9615 a2         1 CLA      0.023000
     25 C1A        79.0887   57.9866   37.3941 ac         1 CLA     -0.015100
     26 C1B        80.3532   60.6918   40.5971 cr         1 CLA      0.054700
     27 C1C        76.4456   60.0639   42.6757 cn         1 CLA     -0.005600
     28 C1D        75.3391   57.2150   39.5422 ap         1 CLA     -0.047300
     29 O1A        81.4482   55.9939   33.0585 o2         1 CLA     -0.610800
     30 O1D        79.6035   54.9616   35.1904 o2         1 CLA     -0.558200
     31 C2         84.1287   54.7559   36.0997 c8         1 CLA     -0.325100
     32 C2A        80.3670   57.8707   36.5898 a1         1 CLA      0.098600
     33 C2B        80.9588   61.4400   41.6490 cb         1 CLA      0.088500
     34 C2C        75.2799   59.8064   43.5264 cb         1 CLA      0.053700
     35 C2D        74.7382   56.5098   38.4643 cb         1 CLA      0.058900
     36 O2A        82.7390   56.4165   34.9362 o1         1 CLA     -0.437200
     37 O2D        78.4512   54.1300   36.9408 o1         1 CLA     -0.357600
     38 C3         85.1996   53.9354   36.0393 c5         1 CLA      0.031200
     39 C3A        81.4075   58.8297   37.3601 a1         1 CLA      0.166800
     40 C3B        80.0048   61.6100   42.7001 cb         1 CLA      0.035000
     41 C3C        74.4912   58.8396   42.9110 cb         1 CLA     -0.089900
     42 C3D        75.7529   56.3777   37.5342 cb         1 CLA     -0.035900
     43 C4         85.1530   52.4060   36.3443 a3         1 CLA     -0.053300
     44 C4A        80.4996   59.4411   38.3991 ac         1 CLA      0.001800
     45 C4B        78.8545   60.9449   42.2162 cn         1 CLA     -0.020900
     46 C4C        75.1593   58.5291   41.6840 cr         1 CLA     -0.044400
     47 C4D        76.8009   57.2597   37.8722 c6         1 CLA     -0.046000
     48 C5         86.4927   54.6291   35.5821 a2         1 CLA     -0.070400
     49 C6         86.9666   55.7840   36.3827 a2         1 CLA      0.043900
     50 C7         86.9074   55.5096   37.8878 a2         1 CLA     -0.150000
     51 C8         87.3624   56.7529   38.7330 a1         1 CLA      0.064200
     52 C9         88.4552   57.6171   38.1634 a3         1 CLA     -0.259300
     53 C10        87.6524   56.3543   40.2282 a2         1 CLA     -0.071900
     54 C11        87.6503   57.5394   41.2063 a2         1 CLA      0.014500
     55 C12        87.5768   56.9854   42.6581 a2         1 CLA     -0.112100
     56 C13        88.8522   56.7211   43.4670 a1         1 CLA      0.089200
     57 C14        89.9433   55.8680   42.7992 a3         1 CLA     -0.239100
     58 C15        88.5129   56.1892   44.8823 a2         1 CLA     -0.102200
     59 C16        87.9696   57.2275   45.8693 a2         1 CLA      0.023900
     60 C17        87.7697   56.6442   47.2104 a2         1 CLA     -0.105700
     61 C18        87.4536   57.6253   48.4667 a1         1 CLA      0.206800
     62 C19        86.1876   58.4100   48.1841 a3         1 CLA     -0.280100
     63 C20        87.2496   56.6717   49.7007 a3         1 CLA     -0.280100
     64 NC         76.3044   59.3239   41.5669 nx         1 CLA     -0.309200
     65 MG         77.6959   59.3652   39.9412 mg         1 CLA      0.895000
     66 HMD3       72.5975   56.5745   38.8158 dc         1 CLA      0.064300
     67 HMD2       73.0213   55.6303   37.3923 dc         1 CLA      0.064300
     68 HMD1       73.4228   54.9218   38.8951 dc         1 CLA      0.064300
     69 HMC3       74.2615   60.2380   45.2787 dc         1 CLA      0.052100
     70 HMC2       75.9341   59.8081   45.5539 dc         1 CLA      0.052100
     71 HMC1       75.6207   61.4217   44.9403 dc         1 CLA      0.052100
     72 HMB3       82.4610   62.9340   42.1833 dc         1 CLA      0.063600
     73 HMB2       83.1602   61.2590   41.9266 dc         1 CLA      0.063600
     74 HMB1       82.4910   62.3029   40.5886 dc         1 CLA      0.063600
     75 HMA3       83.1812   57.6921   37.0935 dc         1 CLA      0.058300
     76 HMA2       83.2578   58.9215   38.4273 dc         1 CLA      0.058300
     77 HMA1       82.3459   57.4277   38.7717 dc         1 CLA      0.058300
     78 HED3       78.5703   52.2670   35.9486 dc         1 CLA      0.079300
     79 HED2       80.1446   52.7984   36.6653 dc         1 CLA      0.079300
     80 HED1       78.6265   52.2309   37.6176 dc         1 CLA      0.079300
     81 HBC3       74.0182   57.4055   45.2734 dc         1 CLA      0.016300
     82 HBC2       72.4559   56.7962   44.5706 dc         1 CLA      0.016300
     83 HBC1       73.9453   56.3728   43.8383 dc         1 CLA      0.016300
     84 HBB2       81.4812   62.6310   45.8148 da         1 CLA      0.183000
     85 HBB1       82.4215   61.8628   44.4467 da         1 CLA      0.183000
     86 HBA2       80.8558   58.5217   33.2505 dc         1 CLA      0.029400
     87 HBA1       82.1406   58.7594   34.5221 dc         1 CLA      0.029400
     88 HAC2       72.6421   59.0671   43.9397 dc         1 CLA      0.029300
     89 HAC1       72.6218   57.8978   42.6020 dc         1 CLA      0.029300
     90 HAA2       79.4062   57.8447   34.5948 dc         1 CLA      0.028700
     91 HAA1       79.7120   59.3946   35.0008 dc         1 CLA      0.028700
     92 H203       87.3324   57.2041   50.6862 dc         1 CLA      0.065600
     93 H202       86.2598   56.2492   49.5514 dc         1 CLA      0.065600
     94 H201       87.8787   55.7703   49.6927 dc         1 CLA      0.065600
     95 H193       86.4873   59.1366   47.4317 dc         1 CLA      0.065600
     96 H192       85.4514   57.7152   47.6979 dc         1 CLA      0.065600
     97 H191       85.7235   58.8821   49.0279 dc         1 CLA      0.065600
     98 H172       87.0124   55.8734   47.1048 dc         1 CLA      0.027600
     99 H171       88.6932   56.2606   47.6472 dc         1 CLA      0.027600
    100 H162       88.7970   57.9692   45.9881 dc         1 CLA      0.002900
    101 H161       87.1263   57.8467   45.6468 dc         1 CLA      0.002900
    102 H152       87.7237   55.4848   44.7417 dc         1 CLA      0.029100
    103 H151       89.3926   55.7873   45.3754 dc         1 CLA      0.029100
    104 H143       90.8804   55.8564   43.3489 dc         1 CLA      0.063600
    105 H142       89.6059   54.8169   42.7097 dc         1 CLA      0.063600
    106 H141       90.2225   56.1907   41.8300 dc         1 CLA      0.063600
    107 H122       86.9316   57.7414   43.2332 dc         1 CLA      0.032500
    108 H121       86.9939   56.0713   42.6529 dc         1 CLA      0.032500
    109 H112       88.5606   58.1570   41.0125 dc         1 CLA      0.006600
    110 H111       86.7217   58.0893   41.1853 dc         1 CLA      0.006600
    111 H102       86.8103   55.7064   40.5363 dc         1 CLA      0.024100
    112 H101       88.6503   55.7955   40.2738 dc         1 CLA      0.024100
    113 HHD        73.9564   56.7999   41.0085 da         1 CLA      0.174300
    114 HHC        77.5618   61.2432   43.8950 da         1 CLA      0.136800
    115 HHB        81.9492   60.5511   39.2711 da         1 CLA      0.138300
    116 HBD        77.7701   56.6106   35.0819 dc         1 CLA      0.107700
    117 HAB        79.3678   62.6339   44.6350 da         1 CLA      0.155200
    118 H93        89.3427   57.0091   38.3064 dc         1 CLA      0.069500
    119 H92        88.3011   57.8382   37.1719 dc         1 CLA      0.069500
    120 H91        88.3939   58.5810   38.7065 dc         1 CLA      0.069500
    121 H8         86.4832   57.4197   38.6913 dc         1 CLA      0.029300
    122 H72        85.8633   55.3273   38.0520 dc         1 CLA      0.044400
    123 H71        87.4882   54.6451   38.1311 dc         1 CLA      0.044400
    124 H62        87.9320   56.1594   35.9614 dc         1 CLA      0.015600
    125 H61        86.2875   56.5734   36.1498 dc         1 CLA      0.015600
    126 H52        87.2976   53.9471   35.6559 dc         1 CLA      0.033200
    127 H51        86.3782   54.9259   34.5264 dc         1 CLA      0.033200
    128 H43        85.7170   52.0140   35.5332 dc         1 CLA      0.037000
    129 H42        85.5707   52.1202   37.3262 dc         1 CLA      0.037000
    130 H41        84.0773   52.0343   36.3710 dc         1 CLA      0.037000
    131 H3A        81.7477   59.6831   36.7256 dc         1 CLA      0.041100
    132 H2A        80.7180   56.8407   36.6665 dc         1 CLA      0.083100
    133 H2         84.0372   55.3579   36.9880 da         1 CLA      0.180900
    134 H18        88.3016   58.3412   48.6956 dc         1 CLA     -0.003900
    135 H13        89.3800   57.6921   43.7183 dc         1 CLA      0.019700
    136 H12        82.4228   54.2530   34.9984 dc         1 CLA      0.120400
    137 H11        83.6754   55.0548   33.9684 dc         1 CLA      0.120400
    138 C1         70.5125   61.7706   50.2256 Z1         2 LUT      0.509236
    139 C2         69.2637   61.1140   50.9399 Z2         2 LUT     -0.434695
    140 C3         68.0819   62.0086   51.3687 Z3         2 LUT      0.437453
    141 O3         68.1616   62.0654   52.7922 S1         2 LUT     -0.547129
    142 C4         68.1608   63.4864   50.7954 Z4         2 LUT     -0.468603
    143 C5         68.7937   63.5859   49.4349 Z5         2 LUT      0.279246
    144 C6         69.8744   62.7802   49.1818 Z6         2 LUT     -0.305473
    145 C7         70.3439   62.5602   47.7635 Z7         2 LUT      0.069402
    146 C8         71.3402   63.1316   47.1189 Z8         2 LUT     -0.191631
    147 C9         71.7689   62.7089   45.7335 Z9         2 LUT      0.196698
    148 C10        72.8379   63.3975   45.2145 Y1         2 LUT     -0.208611
    149 C11        73.5669   63.1529   43.9973 Y2         2 LUT      0.030784
    150 C12        74.6905   63.8683   43.6895 Y3         2 LUT     -0.220316
    151 C13        75.6304   63.6427   42.6123 Y4         2 LUT      0.215937
    152 C14        76.7871   64.3604   42.6063 Y5         2 LUT     -0.185793
    153 C15        77.9685   64.2683   41.7617 Y6         2 LUT     -0.057835
    154 C16        71.4520   60.6205   49.8271 Y7         2 LUT     -0.405615
    155 C17        71.3051   62.6218   51.3482 Y7         2 LUT     -0.405615
    156 C18        67.9849   64.2626   48.3332 Y9         2 LUT     -0.369639
    157 C19        71.2300   61.5297   45.0019 W1         2 LUT     -0.333362
    158 C20        75.1245   62.8682   41.4498 W2         2 LUT     -0.323439
    159 C21        88.9173   65.6015   35.1929 Z1         2 LUT      0.406104
    160 C22        89.6037   65.1536   33.9257 Z2         2 LUT     -0.404965
    161 C23        89.7162   66.1227   32.8005 Z3         2 LUT      0.391255
    162 O23        90.4806   65.5167   31.7937 S1         2 LUT     -0.528210
    163 C24        88.3935   66.6898   32.5984 W6         2 LUT     -0.258361
    164 C25        87.3634   66.5986   33.4617 Z5         2 LUT      0.133546
    165 C26        87.5055   66.0114   34.8282 W8         2 LUT     -0.147008
    166 C27        86.8547   66.7939   36.0307 Z7         2 LUT      0.023843
    167 C28        85.9537   66.1750   36.8568 Z8         2 LUT     -0.216987
    168 C29        85.2856   66.6587   38.0024 Z9         2 LUT      0.206524
    169 C30        84.2544   65.9176   38.4421 Y1         2 LUT     -0.215556
    170 C31        83.4664   66.1557   39.6295 Y2         2 LUT      0.025142
    171 C32        82.3766   65.3432   40.0268 Y3         2 LUT     -0.212209
    172 C33        81.4583   65.4887   41.1244 Y4         2 LUT      0.240937
    173 C34        80.2781   64.7507   41.0749 Y5         2 LUT     -0.218862
    174 C35        79.1713   64.8765   42.0024 Y6         2 LUT     -0.023547
    175 C36        89.8004   66.7207   35.7427 Y7         2 LUT     -0.393485
    176 C37        89.1084   64.4648   36.1588 Y7         2 LUT     -0.393485
    177 C38        86.0030   67.2559   33.0729 Y9         2 LUT     -0.387526
    178 C39        85.7257   67.9280   38.7063 W1         2 LUT     -0.322618
    179 C40        81.3780   66.7670   41.7991 W2         2 LUT     -0.358472
    180 H403       82.2528   67.3334   42.0135 R7         2 LUT      0.097720
    181 H402       80.7757   67.4838   41.2813 R7         2 LUT      0.097720
    182 H401       80.8632   66.7559   42.7384 R7         2 LUT      0.097720
    183 H393       85.9391   68.7208   38.0706 R4         2 LUT      0.082505
    184 H392       84.9918   68.4096   39.3646 R4         2 LUT      0.082505
    185 H391       86.6097   67.7562   39.3047 R4         2 LUT      0.082505
    186 H383       85.3956   66.4465   32.7506 R1         2 LUT      0.104030
    187 H382       85.4786   67.8419   33.8890 R1         2 LUT      0.104030
    188 H381       86.1405   67.9226   32.1933 R1         2 LUT      0.104030
    189 H373       90.2037   64.3246   36.4267 T4         2 LUT      0.089537
    190 H372       88.6096   64.6175   37.1238 T4         2 LUT      0.089537
    191 H371       88.7409   63.5071   35.7612 T4         2 LUT      0.089537
    192 H363       90.8380   66.3778   35.8176 T4         2 LUT      0.089537
    193 H362       89.7637   67.6839   35.1672 T4         2 LUT      0.089537
    194 H361       89.5802   67.0072   36.7873 T4         2 LUT      0.089537
    195 H222       90.6349   64.7897   33.9570 U2         2 LUT      0.127376
    196 H221       89.0445   64.3245   33.5896 U2         2 LUT      0.127376
    197 H203       74.6720   63.5300   40.7019 R7         2 LUT      0.087068
    198 H202       75.8427   62.2634   40.7949 R7         2 LUT      0.087068
    199 H201       74.4877   61.9249   41.6465 R7         2 LUT      0.087068
    200 H193       71.8721   60.6758   45.2431 R4         2 LUT      0.089716
    201 H192       70.1124   61.3847   45.0874 R4         2 LUT      0.089716
    202 H191       71.3511   61.5665   43.9460 R4         2 LUT      0.089716
    203 H183       68.2073   65.3315   48.2923 R1         2 LUT      0.094572
    204 H182       68.0155   63.8466   47.3584 R1         2 LUT      0.094572
    205 H181       66.9347   64.1359   48.6288 R1         2 LUT      0.094572
    206 H173       71.6810   61.8406   52.0176 T4         2 LUT      0.093752
    207 H172       72.1783   63.2059   51.0834 T4         2 LUT      0.093752
    208 H171       70.6437   63.2360   52.0242 T4         2 LUT      0.093752
    209 H163       71.7196   60.1078   50.7338 T4         2 LUT      0.093752
    210 H162       70.8515   60.1272   49.0721 T4         2 LUT      0.093752
    211 H161       72.2886   61.0482   49.2909 T4         2 LUT      0.093752
    212 HO3        67.4525   62.6245   53.1972 Q1         2 LUT      0.300121
    213 H8         71.9747   63.8356   47.6815 U7         2 LUT      0.080784
    214 H7         69.7916   61.8026   47.1631 U6         2 LUT      0.042190
    215 H42        67.0691   63.9118   50.6805 U5         2 LUT      0.145166
    216 H41        68.4777   64.1610   51.5131 U5         2 LUT      0.145166
    217 H35        79.2281   65.5156   42.8721 T3         2 LUT      0.077919
    218 H34        80.2219   64.0739   40.2401 T2         2 LUT      0.073626
    219 H32        82.1559   64.6198   39.2187 T1         2 LUT      0.092510
    220 H31        83.9034   66.8680   40.3379 U9         2 LUT      0.070048
    221 H30        84.0422   64.9482   37.9324 U8         2 LUT      0.085442
    222 H3         67.1362   61.4918   51.0296 U3         2 LUT     -0.031596
    223 H28        85.7087   65.1024   36.5444 U7         2 LUT      0.084728
    224 H27        87.3057   67.7097   36.3410 U6         2 LUT      0.087291
    225 H26        87.0520   65.0191   34.7570 Q6         2 LUT      0.075325
    226 H24        88.2609   67.3033   31.7477 Q5         2 LUT      0.094482
    227 H23        90.3833   66.8515   33.2271 U3         2 LUT     -0.024869
    228 H22        68.7814   60.5756   50.1022 U2         2 LUT      0.127376
    229 H21        69.5880   60.4752   51.7861 U2         2 LUT      0.127376
    230 H15        77.9428   63.6177   40.9030 T3         2 LUT      0.093200
    231 H14        76.9562   64.9788   43.4554 T2         2 LUT      0.068865
    232 H12        74.9956   64.5263   44.4314 T1         2 LUT      0.095507
    233 H11        73.1958   62.3782   43.2610 U9         2 LUT      0.068930
    234 H10        73.0912   64.2079   45.9213 U8         2 LUT      0.083911
    235 H1         89.9006   65.0803   31.1285 Q1         2 LUT      0.297311
@<TRIPOS>BOND
    1     6     1 1
    2     7     2 1
    3     8     3 1
    4     9     4 1
    5    11     4 1
    6    12     6 1
    7    13     9 1
    8    16     9 1
    9    25     5 1
   10    25    16 1
   11    26    10 1
   12    26    17 1
   13    27    18 1
   14    28    14 1
   15    28    19 1
   16    29    12 1
   17    30    13 1
   18    31    24 1
   19    32     1 1
   20    32    25 1
   21    33    21 1
   22    33    26 1
   23    34    22 1
   24    34    27 1
   25    35    23 1
   26    35    28 1
   27    36    12 1
   28    36    24 1
   29    37    13 1
   30    37    15 1
   31    38    31 1
   32    39    20 1
   33    39    32 1
   34    40     2 1
   35    40    33 1
   36    41     3 1
   37    41    34 1
   38    42     4 1
   39    42    35 1
   40    43    38 1
   41    44     5 1
   42    44    17 1
   43    44    39 1
   44    45    10 1
   45    45    18 1
   46    45    40 1
   47    46    19 1
   48    46    41 1
   49    47    14 1
   50    47    16 1
   51    47    42 1
   52    48    38 1
   53    49    48 1
   54    50    49 1
   55    51    50 1
   56    52    51 1
   57    53    51 1
   58    54    53 1
   59    55    54 1
   60    56    55 1
   61    57    56 1
   62    58    56 1
   63    59    58 1
   64    60    59 1
   65    61    60 1
   66    62    61 1
   67    63    61 1
   68    64    27 1
   69    64    46 1
   70    65     5 1
   71    65    10 1
   72    65    64 1
   73    65    14 1
   74    66    23 1
   75    67    23 1
   76    68    23 1
   77    69    22 1
   78    70    22 1
   79    71    22 1
   80    72    21 1
   81    73    21 1
   82    74    21 1
   83    75    20 1
   84    76    20 1
   85    77    20 1
   86    78    15 1
   87    79    15 1
   88    80    15 1
   89    81     8 1
   90    82     8 1
   91    83     8 1
   92    84     7 1
   93    85     7 1
   94    86     6 1
   95    87     6 1
   96    88     3 1
   97    89     3 1
   98    90     1 1
   99    91     1 1
  100    92    63 1
  101    93    63 1
  102    94    63 1
  103    95    62 1
  104    96    62 1
  105    97    62 1
  106    98    60 1
  107    99    60 1
  108   100    59 1
  109   101    59 1
  110   102    58 1
  111   103    58 1
  112   104    57 1
  113   105    57 1
  114   106    57 1
  115   107    55 1
  116   108    55 1
  117   109    54 1
  118   110    54 1
  119   111    53 1
  120   112    53 1
  121   113    19 1
  122   114    18 1
  123   115    17 1
  124   116     9 1
  125   117     2 1
  126   118    52 1
  127   119    52 1
  128   120    52 1
  129   121    51 1
  130   122    50 1
  131   123    50 1
  132   124    49 1
  133   125    49 1
  134   126    48 1
  135   127    48 1
  136   128    43 1
  137   129    43 1
  138   130    43 1
  139   131    39 1
  140   132    32 1
  141   133    31 1
  142   134    61 1
  143   135    56 1
  144   136    24 1
  145   137    24 1
  146   139   138 1
  147   140   139 1
  148   141   140 1
  149   142   140 1
  150   143   142 1
  151   144   138 1
  152   144   143 1
  153   145   144 1
  154   146   145 1
  155   147   146 1
  156   148   147 1
  157   149   148 1
  158   150   149 1
  159   151   150 1
  160   152   151 1
  161   153   152 1
  162   154   138 1
  163   155   138 1
  164   156   143 1
  165   157   147 1
  166   158   151 1
  167   160   159 1
  168   161   160 1
  169   162   161 1
  170   163   161 1
  171   164   163 1
  172   165   159 1
  173   165   164 1
  174   166   165 1
  175   167   166 1
  176   168   167 1
  177   169   168 1
  178   170   169 1
  179   171   170 1
  180   172   171 1
  181   173   172 1
  182   174   153 1
  183   174   173 1
  184   175   159 1
  185   176   159 1
  186   177   164 1
  187   178   168 1
  188   179   172 1
  189   180   179 1
  190   181   179 1
  191   182   179 1
  192   183   178 1
  193   184   178 1
  194   185   178 1
  195   186   177 1
  196   187   177 1
  197   188   177 1
  198   189   176 1
  199   190   176 1
  200   191   176 1
  201   192   175 1
  202   193   175 1
  203   194   175 1
  204   195   160 1
  205   196   160 1
  206   197   158 1
  207   198   158 1
  208   199   158 1
  209   200   157 1
  210   201   157 1
  211   202   157 1
  212   203   156 1
  213   204   156 1
  214   205   156 1
  215   206   155 1
  216   207   155 1
  217   208   155 1
  218   209   154 1
  219   210   154 1
  220   211   154 1
  221   212   141 1
  222   213   146 1
  223   214   145 1
  224   215   142 1
  225   216   142 1
  226   217   174 1
  227   218   173 1
  228   219   171 1
  229   220   170 1
  230   221   169 1
  231   222   140 1
  232   223   167 1
  233   224   166 1
  234   225   165 1
  235   226   163 1
  236   227   161 1
  237   228   139 1
  238   229   139 1
  239   230   153 1
  240   231   152 1
  241   232   150 1
  242   233   149 1
  243   234   148 1
  244   235   162 1
  245   65    153 1
  246   65    174 1
@<TRIPOS>SUBSTRUCTURE
      1 CLA               1 ****               0 ****  **** 
      2 LUT             138 ****               0 ****  **** 
