@<TRIPOS>MOLECULE
Cpptraj generated mol2 file.
  235   246     2     0     0
SMALL
USER_CHARGES


@<TRIPOS>ATOM
      1 CAA        80.0693   59.2960   33.9794 a2         1 CLA     -0.055900
      2 CAB        79.3138   62.7481   43.2063 c8         1 CLA     -0.148500
      3 CAC        72.5735   58.5755   42.0151 a2         1 CLA     -0.012600
      4 CAD        76.0425   56.1697   34.9626 ck         1 CLA      0.398800
      5 NA         78.7315   59.5768   37.3115 ns         1 CLA     -0.225500
      6 CBA        81.4558   59.3594   33.1176 a2         1 CLA     -0.135000
      7 CBB        80.0995   63.7287   43.6707 c0         1 CLA     -0.395200
      8 CBC        72.7342   57.0933   42.4699 a3         1 CLA     -0.037700
      9 CBD        77.4902   56.8352   34.7441 a1         1 CLA     -0.053900
     10 NB         78.4181   60.9728   39.9720 nm         1 CLA     -0.295700
     11 OBD        75.5542   55.2564   34.3452 o2         1 CLA     -0.494600
     12 CGA        82.0811   57.9842   32.7797 c4         1 CLA      0.827000
     13 CGD        78.6622   55.8657   34.7394 c4         1 CLA      0.655300
     14 ND         76.0376   58.4121   37.7760 nm         1 CLA     -0.291600
     15 CED        79.9155   54.5420   36.2105 a3         1 CLA      0.005400
     16 CHA        77.6874   57.9486   35.9058 cs         1 CLA     -0.123800
     17 CHB        80.4808   60.8303   38.5841 aa         1 CLA     -0.291900
     18 CHC        76.8798   61.1810   41.9022 aa         1 CLA     -0.090400
     19 CHD        74.0782   58.1928   39.2515 aa         1 CLA     -0.052000
     20 CMA        82.3829   59.1987   36.9155 a3         1 CLA     -0.230700
     21 CMB        81.6735   62.5293   40.8681 a3         1 CLA     -0.180800
     22 CMC        74.3719   60.4872   43.8836 a3         1 CLA     -0.134000
     23 CMD        73.4947   55.7057   37.1505 a3         1 CLA     -0.141100
     24 C1         83.0939   56.1251   33.7786 a2         1 CLA      0.023000
     25 C1A        78.7491   58.8250   36.1603 ac         1 CLA     -0.015100
     26 C1B        79.7425   61.2647   39.7318 cr         1 CLA      0.054700
     27 C1C        75.7422   60.4826   41.4869 cn         1 CLA     -0.005600
     28 C1D        74.7972   57.8196   38.1026 ap         1 CLA     -0.047300
     29 O1A        81.8085   57.3045   31.8132 o2         1 CLA     -0.610800
     30 O1D        79.5768   55.8982   33.8979 o2         1 CLA     -0.558200
     31 C2         83.8831   55.8660   35.0142 c8         1 CLA     -0.325100
     32 C2A        80.1783   58.7691   35.4676 a1         1 CLA      0.098600
     33 C2B        80.2611   61.9810   40.8984 cb         1 CLA      0.088500
     34 C2C        74.5622   60.1465   42.3381 cb         1 CLA      0.053700
     35 C2D        74.4998   56.7890   37.1025 cb         1 CLA      0.058900
     36 O2A        82.8596   57.5395   33.7963 o1         1 CLA     -0.437200
     37 O2D        78.6067   55.0125   35.8119 o1         1 CLA     -0.357600
     38 C3         84.4715   54.7662   35.4035 c5         1 CLA      0.031200
     39 C3A        81.0113   59.7307   36.3484 a1         1 CLA      0.166800
     40 C3B        79.2583   62.0533   41.8802 cb         1 CLA      0.035000
     41 C3C        73.7835   59.2809   41.5740 cb         1 CLA     -0.089900
     42 C3D        75.5832   56.7916   36.1814 cb         1 CLA     -0.035900
     43 C4         83.8019   53.7906   36.3663 a3         1 CLA     -0.053300
     44 C4A        80.0169   60.0238   37.4989 ac         1 CLA      0.001800
     45 C4B        78.1464   61.3364   41.3015 cn         1 CLA     -0.020900
     46 C4C        74.4238   59.0727   40.2992 cr         1 CLA     -0.044400
     47 C4D        76.4964   57.7942   36.6803 c6         1 CLA     -0.046000
     48 C5         85.9422   54.5146   35.0434 a2         1 CLA     -0.070400
     49 C6         87.0904   55.3084   35.6628 a2         1 CLA      0.043900
     50 C7         87.2251   54.9292   37.1673 a2         1 CLA     -0.150000
     51 C8         88.1181   55.8850   37.9851 a1         1 CLA      0.064200
     52 C9         89.5906   55.8852   37.4576 a3         1 CLA     -0.259300
     53 C10        88.0620   55.6823   39.5699 a2         1 CLA     -0.071900
     54 C11        88.2127   57.0758   40.1967 a2         1 CLA      0.014500
     55 C12        88.1157   56.9686   41.7113 a2         1 CLA     -0.112100
     56 C13        88.1462   58.4223   42.3752 a1         1 CLA      0.089200
     57 C14        89.3157   59.4177   41.9149 a3         1 CLA     -0.239100
     58 C15        88.0888   58.3239   43.9379 a2         1 CLA     -0.102200
     59 C16        86.9787   57.4890   44.5931 a2         1 CLA      0.023900
     60 C17        86.9700   57.7608   46.1122 a2         1 CLA     -0.105700
     61 C18        86.1295   58.9593   46.6872 a1         1 CLA      0.206800
     62 C19        84.7931   59.1679   46.0178 a3         1 CLA     -0.280100
     63 C20        85.9805   58.8224   48.1951 a3         1 CLA     -0.280100
     64 NC         75.6442   59.8493   40.2743 nx         1 CLA     -0.309200
     65 MG         77.1376   59.8467   38.6865 mg         1 CLA      0.895000
     66 HMD3       73.6984   54.9317   36.3349 dc         1 CLA      0.064300
     67 HMD2       73.4196   55.1867   38.1138 dc         1 CLA      0.064300
     68 HMD1       72.5612   56.1355   36.9263 dc         1 CLA      0.064300
     69 HMC3       75.3187   60.2439   44.3732 dc         1 CLA      0.052100
     70 HMC2       74.1635   61.5846   43.9790 dc         1 CLA      0.052100
     71 HMC1       73.4886   59.9655   44.3176 dc         1 CLA      0.052100
     72 HMB3       82.2722   61.8027   40.4615 dc         1 CLA      0.063600
     73 HMB2       81.7186   63.2791   40.1363 dc         1 CLA      0.063600
     74 HMB1       82.1773   62.7993   41.8407 dc         1 CLA      0.063600
     75 HMA3       82.2843   58.0855   36.9535 dc         1 CLA      0.058300
     76 HMA2       83.1036   59.3515   36.0883 dc         1 CLA      0.058300
     77 HMA1       82.6512   59.6202   37.8865 dc         1 CLA      0.058300
     78 HED3       79.8730   53.9490   37.1726 dc         1 CLA      0.079300
     79 HED2       80.2084   53.9807   35.3255 dc         1 CLA      0.079300
     80 HED1       80.6271   55.3572   36.3938 dc         1 CLA      0.079300
     81 HBC3       73.1245   56.5770   41.5738 dc         1 CLA      0.016300
     82 HBC2       73.4557   57.0188   43.3400 dc         1 CLA      0.016300
     83 HBC1       71.7395   56.6482   42.6402 dc         1 CLA      0.016300
     84 HBB2       80.0395   64.1380   44.6664 da         1 CLA      0.183000
     85 HBB1       80.8791   64.1609   42.9905 da         1 CLA      0.183000
     86 HBA2       81.2440   59.8141   32.1797 dc         1 CLA      0.029400
     87 HBA1       82.2133   60.0281   33.6225 dc         1 CLA      0.029400
     88 HAC2       72.0523   59.0972   42.8148 dc         1 CLA      0.029300
     89 HAC1       71.9278   58.5256   41.1098 dc         1 CLA      0.029300
     90 HAA2       79.2918   58.8046   33.3839 dc         1 CLA      0.028700
     91 HAA1       79.6847   60.2903   34.0262 dc         1 CLA      0.028700
     92 H203       85.3975   57.9336   48.4144 dc         1 CLA      0.065600
     93 H202       86.9648   58.7224   48.7139 dc         1 CLA      0.065600
     94 H201       85.5206   59.6252   48.6544 dc         1 CLA      0.065600
     95 H193       84.1421   58.2760   46.0776 dc         1 CLA      0.065600
     96 H192       84.1778   59.9330   46.5598 dc         1 CLA      0.065600
     97 H191       84.7396   59.5657   44.9248 dc         1 CLA      0.065600
     98 H172       86.6246   56.9069   46.7053 dc         1 CLA      0.027600
     99 H171       87.9746   57.9699   46.4842 dc         1 CLA      0.027600
    100 H162       86.0722   57.9025   44.1924 dc         1 CLA      0.002900
    101 H161       87.0981   56.4104   44.3304 dc         1 CLA      0.002900
    102 H152       89.0167   57.7912   44.1952 dc         1 CLA      0.029100
    103 H151       88.0030   59.2784   44.3716 dc         1 CLA      0.029100
    104 H143       89.1644   59.6281   40.7981 dc         1 CLA      0.063600
    105 H142       89.2716   60.3178   42.5060 dc         1 CLA      0.063600
    106 H141       90.2573   58.9596   42.1754 dc         1 CLA      0.063600
    107 H122       87.2167   56.5127   42.1814 dc         1 CLA      0.032500
    108 H121       88.9752   56.3092   42.0546 dc         1 CLA      0.032500
    109 H112       89.2919   57.3491   40.0066 dc         1 CLA      0.006600
    110 H111       87.4644   57.7639   39.7523 dc         1 CLA      0.006600
    111 H102       87.0849   55.4144   39.9344 dc         1 CLA      0.024100
    112 H101       88.7432   54.9874   39.9177 dc         1 CLA      0.024100
    113 HHD        73.1885   57.5482   39.4360 da         1 CLA      0.174300
    114 HHC        76.7869   61.6310   42.9112 da         1 CLA      0.136800
    115 HHB        81.5196   61.1614   38.5692 da         1 CLA      0.138300
    116 HBD        77.5718   57.2494   33.7635 dc         1 CLA      0.107700
    117 HAB        78.5925   62.3441   43.9633 da         1 CLA      0.155200
    118 H93        90.1767   56.6030   37.9922 dc         1 CLA      0.069500
    119 H92        89.9938   54.8415   37.5963 dc         1 CLA      0.069500
    120 H91        89.7637   56.1924   36.4248 dc         1 CLA      0.069500
    121 H8         87.5831   56.8070   37.7986 dc         1 CLA      0.029300
    122 H72        86.2295   54.8344   37.6179 dc         1 CLA      0.044400
    123 H71        87.7211   53.9700   37.2448 dc         1 CLA      0.044400
    124 H62        88.0137   55.1474   35.0962 dc         1 CLA      0.015600
    125 H61        86.7845   56.3699   35.5588 dc         1 CLA      0.015600
    126 H52        86.1673   53.4763   35.2794 dc         1 CLA      0.033200
    127 H51        86.0006   54.6722   33.9169 dc         1 CLA      0.033200
    128 H43        83.7380   52.8494   35.8646 dc         1 CLA      0.037000
    129 H42        84.4760   53.6171   37.2386 dc         1 CLA      0.037000
    130 H41        82.8413   54.2335   36.7413 dc         1 CLA      0.037000
    131 H3A        81.2330   60.6488   35.8729 dc         1 CLA      0.041100
    132 H2A        80.6467   57.7357   35.5063 dc         1 CLA      0.083100
    133 H2         84.0390   56.7791   35.6411 da         1 CLA      0.180900
    134 H18        86.6142   59.9310   46.6483 dc         1 CLA     -0.003900
    135 H13        87.1604   58.8405   42.1187 dc         1 CLA      0.019700
    136 H12        82.1891   55.5153   33.8648 dc         1 CLA      0.120400
    137 H11        83.5956   55.6853   32.9212 dc         1 CLA      0.120400
    138 C1         69.4952   62.2634   49.7111 Z1         2 LUT      0.509236
    139 C2         68.1058   62.0556   50.3674 Z2         2 LUT     -0.434695
    140 C3         67.3473   63.4243   50.5977 Z3         2 LUT      0.437453
    141 O3         67.3499   63.6065   51.9915 S1         2 LUT     -0.547129
    142 C4         67.7791   64.6045   49.7635 Z4         2 LUT     -0.468603
    143 C5         68.5322   64.1707   48.4304 Z5         2 LUT      0.279246
    144 C6         69.3046   63.0555   48.3982 Z6         2 LUT     -0.305473
    145 C7         69.8321   62.4814   47.1830 Z7         2 LUT      0.069402
    146 C8         70.6057   63.1633   46.3140 Z8         2 LUT     -0.191631
    147 C9         71.2293   62.8792   45.0542 Z9         2 LUT      0.196698
    148 C10        72.2175   63.7248   44.5791 Y1         2 LUT     -0.208611
    149 C11        72.9547   63.7503   43.3544 Y2         2 LUT      0.030784
    150 C12        74.0944   64.4516   43.2429 Y3         2 LUT     -0.220316
    151 C13        75.0060   64.5045   42.1293 Y4         2 LUT      0.215937
    152 C14        76.2868   64.8870   42.2356 Y5         2 LUT     -0.185793
    153 C15        77.3754   64.9332   41.2985 Y6         2 LUT     -0.057835
    154 C16        70.1256   60.9091   49.4975 Y7         2 LUT     -0.405615
    155 C17        70.3971   62.9967   50.7811 Y7         2 LUT     -0.405615
    156 C18        68.1177   65.0167   47.2314 Y9         2 LUT     -0.369639
    157 C19        70.6166   61.6774   44.3016 W1         2 LUT     -0.333362
    158 C20        74.5741   63.9009   40.7483 W2         2 LUT     -0.323439
    159 C21        88.2686   66.1231   35.0351 Z1         2 LUT      0.406104
    160 C22        89.0774   65.7499   33.7819 Z2         2 LUT     -0.404965
    161 C23        89.2453   66.7820   32.6211 Z3         2 LUT      0.391255
    162 O23        90.2161   66.3108   31.6217 S1         2 LUT     -0.528210
    163 C24        87.8869   67.3944   32.2422 W6         2 LUT     -0.258361
    164 C25        86.8388   67.4095   33.1462 Z5         2 LUT      0.133546
    165 C26        86.9265   66.7959   34.5156 W8         2 LUT     -0.147008
    166 C27        86.3027   67.5284   35.6719 Z7         2 LUT      0.023843
    167 C28        85.5603   66.9453   36.6136 Z8         2 LUT     -0.216987
    168 C29        84.7269   67.4956   37.6846 Z9         2 LUT      0.206524
    169 C30        83.7265   66.7020   38.2150 Y1         2 LUT     -0.215556
    170 C31        82.8884   67.0091   39.3283 Y2         2 LUT      0.025142
    171 C32        81.6802   66.3576   39.6143 Y3         2 LUT     -0.212209
    172 C33        80.7426   66.6487   40.6627 Y4         2 LUT      0.240937
    173 C34        79.5469   65.9113   40.6384 Y5         2 LUT     -0.218862
    174 C35        78.3831   65.8043   41.5170 Y6         2 LUT     -0.023547
    175 C36        89.1378   67.2463   35.6789 Y7         2 LUT     -0.393485
    176 C37        88.1358   64.9234   36.0308 Y7         2 LUT     -0.393485
    177 C38        85.5499   68.0916   32.8307 Y9         2 LUT     -0.387526
    178 C39        84.8902   68.9321   38.0560 W1         2 LUT     -0.322618
    179 C40        81.1052   67.6391   41.7893 W2         2 LUT     -0.358472
    180 H403       80.3869   67.6267   42.5494 R7         2 LUT      0.097720
    181 H402       81.9752   67.3566   42.4400 R7         2 LUT      0.097720
    182 H401       81.3169   68.5710   41.3798 R7         2 LUT      0.097720
    183 H393       84.3171   69.4722   37.3550 R4         2 LUT      0.082505
    184 H392       84.5133   69.2310   39.0516 R4         2 LUT      0.082505
    185 H391       85.9329   69.2915   37.8866 R4         2 LUT      0.082505
    186 H383       85.4940   69.0131   33.3358 R1         2 LUT      0.104030
    187 H382       85.6284   68.4497   31.7674 R1         2 LUT      0.104030
    188 H381       84.5853   67.5146   32.9384 R1         2 LUT      0.104030
    189 H373       89.0956   64.7220   36.5171 T4         2 LUT      0.089537
    190 H372       87.4703   65.1928   36.8334 T4         2 LUT      0.089537
    191 H371       87.8656   64.0309   35.5274 T4         2 LUT      0.089537
    192 H363       89.0452   68.1871   35.1443 T4         2 LUT      0.089537
    193 H362       88.7731   67.5910   36.6746 T4         2 LUT      0.089537
    194 H361       90.2454   67.0599   35.6723 T4         2 LUT      0.089537
    195 H222       90.0917   65.3567   34.1021 U2         2 LUT      0.127376
    196 H221       88.5220   64.9009   33.3787 U2         2 LUT      0.127376
    197 H203       73.6007   64.1863   40.5026 R7         2 LUT      0.087068
    198 H202       75.2048   64.2527   39.9530 R7         2 LUT      0.087068
    199 H201       74.5084   62.8056   40.6957 R7         2 LUT      0.087068
    200 H193       69.4931   61.7391   44.1968 R4         2 LUT      0.089716
    201 H192       70.9474   61.5162   43.3247 R4         2 LUT      0.089716
    202 H191       70.8036   60.7467   44.8265 R4         2 LUT      0.089716
    203 H183       68.5977   66.0090   47.2888 R1         2 LUT      0.094572
    204 H182       68.3330   64.4193   46.3119 R1         2 LUT      0.094572
    205 H181       67.0407   65.0526   47.2088 R1         2 LUT      0.094572
    206 H173       71.4538   62.8604   50.6851 T4         2 LUT      0.093752
    207 H172       70.3817   64.0795   50.4710 T4         2 LUT      0.093752
    208 H171       70.0375   62.8335   51.8098 T4         2 LUT      0.093752
    209 H163       71.0497   60.9736   48.9525 T4         2 LUT      0.093752
    210 H162       70.3086   60.3374   50.4460 T4         2 LUT      0.093752
    211 H161       69.4384   60.2589   48.9770 T4         2 LUT      0.093752
    212 HO3        66.5842   63.2331   52.3961 Q1         2 LUT      0.300121
    213 H8         70.7746   64.1500   46.6367 U7         2 LUT      0.080784
    214 H7         69.7648   61.4082   47.0075 U6         2 LUT      0.042190
    215 H42        66.9159   65.2705   49.4691 U5         2 LUT      0.145166
    216 H41        68.4019   65.3393   50.3283 U5         2 LUT      0.145166
    217 H35        78.3021   66.3399   42.3562 T3         2 LUT      0.077919
    218 H34        79.6004   65.1542   39.8446 T2         2 LUT      0.073626
    219 H32        81.3566   65.5451   39.0674 T1         2 LUT      0.092510
    220 H31        83.1154   67.8393   39.9735 U9         2 LUT      0.070048
    221 H30        83.6495   65.7033   37.8472 U8         2 LUT      0.085442
    222 H3         66.3494   63.3088   50.3012 U3         2 LUT     -0.031596
    223 H28        85.3505   65.8770   36.4733 U7         2 LUT      0.084728
    224 H27        86.1582   68.6122   35.5914 U6         2 LUT      0.087291
    225 H26        86.3241   65.9023   34.2781 Q6         2 LUT      0.075325
    226 H24        87.8570   67.8849   31.2933 Q5         2 LUT      0.094482
    227 H23        89.6879   67.6448   33.1078 U3         2 LUT     -0.024869
    228 H22        67.6099   61.3854   49.6385 U2         2 LUT      0.127376
    229 H21        68.1905   61.4886   51.2904 U2         2 LUT      0.127376
    230 H15        77.3664   64.3263   40.3479 T3         2 LUT      0.093200
    231 H14        76.5735   65.2352   43.2440 T2         2 LUT      0.068865
    232 H12        74.5101   64.9593   44.1046 T1         2 LUT      0.095507
    233 H11        72.5035   63.2564   42.5151 U9         2 LUT      0.068930
    234 H10        72.6176   64.4789   45.2720 U8         2 LUT      0.083911
    235 H1         89.8392   65.7106   30.9303 Q1         2 LUT      0.297311
@<TRIPOS>BOND
    1     6     1 1
    2     7     2 1
    3     8     3 1
    4     9     4 1
    5    11     4 1
    6    12     6 1
    7    13     9 1
    8    16     9 1
    9    25     5 1
   10    25    16 1
   11    26    10 1
   12    26    17 1
   13    27    18 1
   14    28    14 1
   15    28    19 1
   16    29    12 1
   17    30    13 1
   18    31    24 1
   19    32     1 1
   20    32    25 1
   21    33    21 1
   22    33    26 1
   23    34    22 1
   24    34    27 1
   25    35    23 1
   26    35    28 1
   27    36    12 1
   28    36    24 1
   29    37    13 1
   30    37    15 1
   31    38    31 1
   32    39    20 1
   33    39    32 1
   34    40     2 1
   35    40    33 1
   36    41     3 1
   37    41    34 1
   38    42     4 1
   39    42    35 1
   40    43    38 1
   41    44     5 1
   42    44    17 1
   43    44    39 1
   44    45    10 1
   45    45    18 1
   46    45    40 1
   47    46    19 1
   48    46    41 1
   49    47    14 1
   50    47    16 1
   51    47    42 1
   52    48    38 1
   53    49    48 1
   54    50    49 1
   55    51    50 1
   56    52    51 1
   57    53    51 1
   58    54    53 1
   59    55    54 1
   60    56    55 1
   61    57    56 1
   62    58    56 1
   63    59    58 1
   64    60    59 1
   65    61    60 1
   66    62    61 1
   67    63    61 1
   68    64    27 1
   69    64    46 1
   70    65     5 1
   71    65    10 1
   72    65    64 1
   73    65    14 1
   74    66    23 1
   75    67    23 1
   76    68    23 1
   77    69    22 1
   78    70    22 1
   79    71    22 1
   80    72    21 1
   81    73    21 1
   82    74    21 1
   83    75    20 1
   84    76    20 1
   85    77    20 1
   86    78    15 1
   87    79    15 1
   88    80    15 1
   89    81     8 1
   90    82     8 1
   91    83     8 1
   92    84     7 1
   93    85     7 1
   94    86     6 1
   95    87     6 1
   96    88     3 1
   97    89     3 1
   98    90     1 1
   99    91     1 1
  100    92    63 1
  101    93    63 1
  102    94    63 1
  103    95    62 1
  104    96    62 1
  105    97    62 1
  106    98    60 1
  107    99    60 1
  108   100    59 1
  109   101    59 1
  110   102    58 1
  111   103    58 1
  112   104    57 1
  113   105    57 1
  114   106    57 1
  115   107    55 1
  116   108    55 1
  117   109    54 1
  118   110    54 1
  119   111    53 1
  120   112    53 1
  121   113    19 1
  122   114    18 1
  123   115    17 1
  124   116     9 1
  125   117     2 1
  126   118    52 1
  127   119    52 1
  128   120    52 1
  129   121    51 1
  130   122    50 1
  131   123    50 1
  132   124    49 1
  133   125    49 1
  134   126    48 1
  135   127    48 1
  136   128    43 1
  137   129    43 1
  138   130    43 1
  139   131    39 1
  140   132    32 1
  141   133    31 1
  142   134    61 1
  143   135    56 1
  144   136    24 1
  145   137    24 1
  146   139   138 1
  147   140   139 1
  148   141   140 1
  149   142   140 1
  150   143   142 1
  151   144   138 1
  152   144   143 1
  153   145   144 1
  154   146   145 1
  155   147   146 1
  156   148   147 1
  157   149   148 1
  158   150   149 1
  159   151   150 1
  160   152   151 1
  161   153   152 1
  162   154   138 1
  163   155   138 1
  164   156   143 1
  165   157   147 1
  166   158   151 1
  167   160   159 1
  168   161   160 1
  169   162   161 1
  170   163   161 1
  171   164   163 1
  172   165   159 1
  173   165   164 1
  174   166   165 1
  175   167   166 1
  176   168   167 1
  177   169   168 1
  178   170   169 1
  179   171   170 1
  180   172   171 1
  181   173   172 1
  182   174   153 1
  183   174   173 1
  184   175   159 1
  185   176   159 1
  186   177   164 1
  187   178   168 1
  188   179   172 1
  189   180   179 1
  190   181   179 1
  191   182   179 1
  192   183   178 1
  193   184   178 1
  194   185   178 1
  195   186   177 1
  196   187   177 1
  197   188   177 1
  198   189   176 1
  199   190   176 1
  200   191   176 1
  201   192   175 1
  202   193   175 1
  203   194   175 1
  204   195   160 1
  205   196   160 1
  206   197   158 1
  207   198   158 1
  208   199   158 1
  209   200   157 1
  210   201   157 1
  211   202   157 1
  212   203   156 1
  213   204   156 1
  214   205   156 1
  215   206   155 1
  216   207   155 1
  217   208   155 1
  218   209   154 1
  219   210   154 1
  220   211   154 1
  221   212   141 1
  222   213   146 1
  223   214   145 1
  224   215   142 1
  225   216   142 1
  226   217   174 1
  227   218   173 1
  228   219   171 1
  229   220   170 1
  230   221   169 1
  231   222   140 1
  232   223   167 1
  233   224   166 1
  234   225   165 1
  235   226   163 1
  236   227   161 1
  237   228   139 1
  238   229   139 1
  239   230   153 1
  240   231   152 1
  241   232   150 1
  242   233   149 1
  243   234   148 1
  244   235   162 1
  245   65    153 1
  246   65    174 1
@<TRIPOS>SUBSTRUCTURE
      1 CLA               1 ****               0 ****  **** 
      2 LUT             138 ****               0 ****  **** 
