@<TRIPOS>MOLECULE
Cpptraj generated mol2 file.
  235   246     2     0     0
SMALL
USER_CHARGES


@<TRIPOS>ATOM
      1 CAA        77.4028   57.3491   32.9147 a2         1 CLA     -0.055900
      2 CAB        77.3108   61.2407   41.9319 c8         1 CLA     -0.148500
      3 CAC        70.6065   56.7174   41.5454 a2         1 CLA     -0.012600
      4 CAD        73.2135   54.7844   34.2282 ck         1 CLA      0.398800
      5 NA         76.3471   57.9392   36.2308 ns         1 CLA     -0.225500
      6 CBA        78.6901   57.3474   32.0423 a2         1 CLA     -0.135000
      7 CBB        76.3945   61.8218   42.7837 c0         1 CLA     -0.395200
      8 CBC        70.4914   55.2104   41.3242 a3         1 CLA     -0.037700
      9 CBD        74.6159   55.4576   33.9317 a1         1 CLA     -0.053900
     10 NB         76.1524   59.3990   38.9600 nm         1 CLA     -0.295700
     11 OBD        72.7133   53.9071   33.5548 o2         1 CLA     -0.494600
     12 CGA        79.2463   55.9336   31.6885 c4         1 CLA      0.827000
     13 CGD        75.5153   54.3803   33.5429 c4         1 CLA      0.655300
     14 ND         73.5382   56.9715   36.9193 nm         1 CLA     -0.291600
     15 CED        76.4745   52.2428   34.3122 a3         1 CLA      0.005400
     16 CHA        74.9947   56.3787   35.0176 cs         1 CLA     -0.123800
     17 CHB        77.8956   59.4081   37.3333 aa         1 CLA     -0.291900
     18 CHC        74.9136   59.3564   41.1352 aa         1 CLA     -0.090400
     19 CHD        71.5811   56.9501   38.4323 aa         1 CLA     -0.052000
     20 CMA        79.7503   57.4867   35.6445 a3         1 CLA     -0.230700
     21 CMB        79.3386   61.3082   39.5067 a3         1 CLA     -0.180800
     22 CMC        72.7747   58.3588   43.1781 a3         1 CLA     -0.134000
     23 CMD        70.3768   55.1206   36.3479 a3         1 CLA     -0.141100
     24 C1         79.9599   53.9299   32.6648 a2         1 CLA      0.023000
     25 C1A        76.2170   56.9964   35.2790 ac         1 CLA     -0.015100
     26 C1B        77.3289   59.8744   38.5398 cr         1 CLA      0.054700
     27 C1C        73.8396   58.5579   40.7243 cn         1 CLA     -0.005600
     28 C1D        72.2686   56.6103   37.2340 ap         1 CLA     -0.047300
     29 O1A        79.0882   55.3415   30.6080 o2         1 CLA     -0.610800
     30 O1D        75.9891   54.1890   32.4579 o2         1 CLA     -0.558200
     31 C2         80.4898   53.4366   33.9551 c8         1 CLA     -0.325100
     32 C2A        77.5164   56.9654   34.4538 a1         1 CLA      0.098600
     33 C2B        77.9892   60.6464   39.5830 cb         1 CLA      0.088500
     34 C2C        72.7501   58.1181   41.6781 cb         1 CLA      0.053700
     35 C2D        71.7562   55.6631   36.2885 cb         1 CLA      0.058900
     36 O2A        79.9322   55.4112   32.7390 o1         1 CLA     -0.437200
     37 O2D        75.7198   53.4644   34.6184 o1         1 CLA     -0.357600
     38 C3         81.1912   52.3124   34.1728 c5         1 CLA      0.031200
     39 C3A        78.4050   58.0439   35.1881 a1         1 CLA      0.166800
     40 C3B        77.0911   60.6479   40.6070 cb         1 CLA      0.035000
     41 C3C        71.7988   57.4092   40.9409 cb         1 CLA     -0.089900
     42 C3D        72.8082   55.4639   35.4238 cb         1 CLA     -0.035900
     43 C4         80.6883   50.9732   34.5375 a3         1 CLA     -0.053300
     44 C4A        77.5072   58.5344   36.2837 ac         1 CLA      0.001800
     45 C4B        75.9895   59.7261   40.2954 cn         1 CLA     -0.020900
     46 C4C        72.2475   57.4579   39.5616 cr         1 CLA     -0.044400
     47 C4D        73.8641   56.3910   35.8056 c6         1 CLA     -0.046000
     48 C5         82.7228   52.3254   33.9702 a2         1 CLA     -0.070400
     49 C6         83.5321   53.6164   34.1195 a2         1 CLA      0.043900
     50 C7         83.6931   53.9890   35.5563 a2         1 CLA     -0.150000
     51 C8         83.9625   55.4906   35.7999 a1         1 CLA      0.064200
     52 C9         85.1008   55.9661   34.9781 a3         1 CLA     -0.259300
     53 C10        84.3368   55.7473   37.3503 a2         1 CLA     -0.071900
     54 C11        83.2241   55.3534   38.2713 a2         1 CLA      0.014500
     55 C12        83.1068   56.3097   39.5237 a2         1 CLA     -0.112100
     56 C13        81.7223   56.1703   40.3414 a1         1 CLA      0.089200
     57 C14        80.4625   56.8349   39.5833 a3         1 CLA     -0.239100
     58 C15        81.8553   56.8239   41.7006 a2         1 CLA     -0.102200
     59 C16        82.3325   58.2770   41.7846 a2         1 CLA      0.023900
     60 C17        82.3212   58.8327   43.2288 a2         1 CLA     -0.105700
     61 C18        82.8406   60.2412   43.3599 a1         1 CLA      0.206800
     62 C19        81.8755   61.3116   42.7409 a3         1 CLA     -0.280100
     63 C20        83.0907   60.6141   44.9018 a3         1 CLA     -0.280100
     64 NC         73.5420   58.0132   39.5137 nx         1 CLA     -0.309200
     65 MG         74.8222   58.2552   37.8487 mg         1 CLA      0.895000
     66 HMD3       70.1846   54.4913   35.5206 dc         1 CLA      0.064300
     67 HMD2       70.2928   54.5438   37.2696 dc         1 CLA      0.064300
     68 HMD1       69.7030   55.9673   36.4019 dc         1 CLA      0.064300
     69 HMC3       73.0669   59.3718   43.3277 dc         1 CLA      0.052100
     70 HMC2       71.8940   58.1102   43.7071 dc         1 CLA      0.052100
     71 HMC1       73.5031   57.7834   43.6328 dc         1 CLA      0.052100
     72 HMB3       79.2125   62.2760   39.0237 dc         1 CLA      0.063600
     73 HMB2       79.5882   61.4611   40.5512 dc         1 CLA      0.063600
     74 HMB1       80.2036   60.7984   39.0313 dc         1 CLA      0.063600
     75 HMA3       80.1516   58.0725   36.5086 dc         1 CLA      0.058300
     76 HMA2       79.7337   56.4274   35.9103 dc         1 CLA      0.058300
     77 HMA1       80.4315   57.5665   34.7714 dc         1 CLA      0.058300
     78 HED3       77.4093   52.4744   33.8220 dc         1 CLA      0.079300
     79 HED2       76.5171   51.6432   35.2148 dc         1 CLA      0.079300
     80 HED1       75.8765   51.6777   33.5275 dc         1 CLA      0.079300
     81 HBC3       70.3755   54.9936   40.2665 dc         1 CLA      0.016300
     82 HBC2       71.3243   54.5896   41.7065 dc         1 CLA      0.016300
     83 HBC1       69.6243   54.7741   41.8031 dc         1 CLA      0.016300
     84 HBB2       76.6964   62.2601   43.7552 da         1 CLA      0.183000
     85 HBB1       75.3362   61.8297   42.5268 da         1 CLA      0.183000
     86 HBA2       78.3422   57.8978   31.1770 dc         1 CLA      0.029400
     87 HBA1       79.4069   57.9529   32.5838 dc         1 CLA      0.029400
     88 HAC2       70.6080   56.8426   42.6957 dc         1 CLA      0.029300
     89 HAC1       69.7214   57.1506   41.1847 dc         1 CLA      0.029300
     90 HAA2       76.7291   56.6542   32.4207 dc         1 CLA      0.028700
     91 HAA1       76.9434   58.3537   32.8803 dc         1 CLA      0.028700
     92 H203       82.2512   60.4187   45.5836 dc         1 CLA      0.065600
     93 H202       83.9132   60.0279   45.3575 dc         1 CLA      0.065600
     94 H201       83.3625   61.6125   44.9031 dc         1 CLA      0.065600
     95 H193       81.5755   61.1939   41.7468 dc         1 CLA      0.065600
     96 H192       80.9283   61.1698   43.3232 dc         1 CLA      0.065600
     97 H191       82.4170   62.2988   42.7734 dc         1 CLA      0.065600
     98 H172       81.2776   58.9063   43.5239 dc         1 CLA      0.027600
     99 H171       82.8400   58.2142   43.9708 dc         1 CLA      0.027600
    100 H162       83.3584   58.3442   41.4392 dc         1 CLA      0.002900
    101 H161       81.7165   58.9398   41.2253 dc         1 CLA      0.002900
    102 H152       80.9927   56.7310   42.3552 dc         1 CLA      0.029100
    103 H151       82.6961   56.2925   42.1544 dc         1 CLA      0.029100
    104 H143       80.3027   56.4248   38.5809 dc         1 CLA      0.063600
    105 H142       79.5530   56.8015   40.1990 dc         1 CLA      0.063600
    106 H141       80.6817   57.8469   39.5190 dc         1 CLA      0.063600
    107 H122       83.9467   56.1422   40.2102 dc         1 CLA      0.032500
    108 H121       83.1346   57.3646   39.1323 dc         1 CLA      0.032500
    109 H112       82.3573   55.5490   37.6387 dc         1 CLA      0.006600
    110 H111       83.2099   54.2662   38.4493 dc         1 CLA      0.006600
    111 H102       85.2861   55.2127   37.4824 dc         1 CLA      0.024100
    112 H101       84.5125   56.7772   37.4541 dc         1 CLA      0.024100
    113 HHD        70.5979   56.6100   38.5988 da         1 CLA      0.174300
    114 HHC        74.9605   59.7823   42.1492 da         1 CLA      0.136800
    115 HHB        78.9556   59.7580   37.2007 da         1 CLA      0.138300
    116 HBD        74.4579   56.0540   33.0299 dc         1 CLA      0.107700
    117 HAB        78.3324   61.3946   42.2597 da         1 CLA      0.155200
    118 H93        85.5886   56.8677   35.3107 dc         1 CLA      0.069500
    119 H92        85.8420   55.2093   34.7773 dc         1 CLA      0.069500
    120 H91        84.6518   56.0833   34.0046 dc         1 CLA      0.069500
    121 H8         83.0204   55.9949   35.5955 dc         1 CLA      0.029300
    122 H72        82.8418   53.6188   36.1228 dc         1 CLA      0.044400
    123 H71        84.5627   53.4936   35.8708 dc         1 CLA      0.044400
    124 H62        84.5700   53.6675   33.6153 dc         1 CLA      0.015600
    125 H61        82.9549   54.4074   33.7755 dc         1 CLA      0.015600
    126 H52        83.1736   51.4264   34.4896 dc         1 CLA      0.033200
    127 H51        82.6377   52.0923   32.9076 dc         1 CLA      0.033200
    128 H43        81.1212   50.8191   35.5547 dc         1 CLA      0.037000
    129 H42        79.6203   50.9396   34.7405 dc         1 CLA      0.037000
    130 H41        80.9975   50.0517   33.9684 dc         1 CLA      0.037000
    131 H3A        78.4366   58.9766   34.5988 dc         1 CLA      0.041100
    132 H2A        77.9738   55.9465   34.6154 dc         1 CLA      0.083100
    133 H2         80.3158   54.1087   34.7995 da         1 CLA      0.180900
    134 H18        83.8792   60.2401   42.9573 dc         1 CLA     -0.003900
    135 H13        81.5410   55.1485   40.4694 dc         1 CLA      0.019700
    136 H12        78.9723   53.4548   32.4587 dc         1 CLA      0.120400
    137 H11        80.6293   53.5539   31.9103 dc         1 CLA      0.120400
    138 C1         67.7162   60.0384   48.9575 Z1         2 LUT      0.509236
    139 C2         66.3294   60.0243   49.7538 Z2         2 LUT     -0.434695
    140 C3         65.6945   61.4310   49.9524 Z3         2 LUT      0.437453
    141 O3         65.6624   61.6965   51.3842 S1         2 LUT     -0.547129
    142 C4         66.3696   62.6353   49.2846 Z4         2 LUT     -0.468603
    143 C5         66.8700   62.2760   47.9322 Z5         2 LUT      0.279246
    144 C6         67.5519   61.1020   47.7611 Z6         2 LUT     -0.305473
    145 C7         67.8802   60.5124   46.4372 Z7         2 LUT      0.069402
    146 C8         68.5330   61.2789   45.4773 Z8         2 LUT     -0.191631
    147 C9         69.0289   60.9529   44.0750 Z9         2 LUT      0.196698
    148 C10        69.9647   61.8591   43.5729 Y1         2 LUT     -0.208611
    149 C11        70.7336   61.7987   42.3793 Y2         2 LUT      0.030784
    150 C12        71.7784   62.6955   42.0362 Y3         2 LUT     -0.220316
    151 C13        72.6885   62.6556   40.8923 Y4         2 LUT      0.215937
    152 C14        73.7625   63.4739   40.8918 Y5         2 LUT     -0.185793
    153 C15        74.8227   63.5321   39.8655 Y6         2 LUT     -0.057835
    154 C16        68.1935   58.5818   48.6246 Y7         2 LUT     -0.405615
    155 C17        68.7042   60.5351   50.0547 Y7         2 LUT     -0.405615
    156 C18        66.1885   63.0445   46.8386 Y9         2 LUT     -0.369639
    157 C19        68.4885   59.6888   43.4664 W1         2 LUT     -0.333362
    158 C20        72.1686   61.9171   39.6576 W2         2 LUT     -0.323439
    159 C21        86.2320   64.5628   33.8216 Z1         2 LUT      0.406104
    160 C22        86.8819   64.0280   32.5443 Z2         2 LUT     -0.404965
    161 C23        87.0946   65.0090   31.3688 Z3         2 LUT      0.391255
    162 O23        87.6057   64.1826   30.3578 S1         2 LUT     -0.528210
    163 C24        85.8824   65.9170   31.1658 W6         2 LUT     -0.258361
    164 C25        84.8907   66.0837   32.0609 Z5         2 LUT      0.133546
    165 C26        84.8568   65.2782   33.4215 W8         2 LUT     -0.147008
    166 C27        84.1381   65.8766   34.5762 Z7         2 LUT      0.023843
    167 C28        82.9191   65.6827   34.9648 Z8         2 LUT     -0.216987
    168 C29        82.4282   65.9817   36.3419 Z9         2 LUT      0.206524
    169 C30        81.2407   65.3315   36.6968 Y1         2 LUT     -0.215556
    170 C31        80.4180   65.3835   37.8788 Y2         2 LUT      0.025142
    171 C32        79.1216   64.9244   37.9984 Y3         2 LUT     -0.212209
    172 C33        78.2938   64.9704   39.2040 Y4         2 LUT      0.240937
    173 C34        77.0970   64.2419   39.2205 Y5         2 LUT     -0.218862
    174 C35        76.0377   64.1311   40.1424 Y6         2 LUT     -0.023547
    175 C36        87.2925   65.3942   34.5669 Y7         2 LUT     -0.393485
    176 C37        86.0310   63.3544   34.6907 Y7         2 LUT     -0.393485
    177 C38        83.8012   66.9877   31.7197 Y9         2 LUT     -0.387526
    178 C39        83.1558   66.9341   37.2888 W1         2 LUT     -0.322618
    179 C40        78.7400   65.9337   40.2911 W2         2 LUT     -0.358472
    180 H403       79.7127   65.6412   40.6930 R7         2 LUT      0.097720
    181 H402       78.8455   66.9327   39.8109 R7         2 LUT      0.097720
    182 H401       78.1153   65.8252   41.1479 R7         2 LUT      0.097720
    183 H393       82.4766   67.4030   37.9670 R4         2 LUT      0.082505
    184 H392       84.0227   66.4185   37.8557 R4         2 LUT      0.082505
    185 H391       83.6101   67.7837   36.7250 R4         2 LUT      0.082505
    186 H383       83.2383   67.3585   32.5970 R1         2 LUT      0.104030
    187 H382       84.1270   67.7855   31.0784 R1         2 LUT      0.104030
    188 H381       83.0775   66.4301   31.1682 R1         2 LUT      0.104030
    189 H373       85.4552   62.5458   34.2444 T4         2 LUT      0.089537
    190 H372       87.0446   62.9246   34.9303 T4         2 LUT      0.089537
    191 H371       85.4971   63.5263   35.6624 T4         2 LUT      0.089537
    192 H363       86.9345   65.4462   35.5972 T4         2 LUT      0.089537
    193 H362       88.2868   64.9241   34.4874 T4         2 LUT      0.089537
    194 H361       87.4696   66.3931   34.2071 T4         2 LUT      0.089537
    195 H222       87.9117   63.7215   32.7469 U2         2 LUT      0.127376
    196 H221       86.2996   63.2609   32.0892 U2         2 LUT      0.127376
    197 H203       72.4034   62.4330   38.6619 R7         2 LUT      0.087068
    198 H202       72.6190   61.0005   39.4430 R7         2 LUT      0.087068
    199 H201       71.1111   61.7858   39.6104 R7         2 LUT      0.087068
    200 H193       68.8405   58.7561   43.9621 R4         2 LUT      0.089716
    201 H192       67.4385   59.5922   43.5615 R4         2 LUT      0.089716
    202 H191       68.7229   59.6104   42.4396 R4         2 LUT      0.089716
    203 H183       66.6406   64.0154   46.8921 R1         2 LUT      0.094572
    204 H182       66.3820   62.5795   45.8452 R1         2 LUT      0.094572
    205 H181       65.0809   63.1241   46.9684 R1         2 LUT      0.094572
    206 H173       68.4828   61.4604   50.5488 T4         2 LUT      0.093752
    207 H172       68.8980   59.8347   50.9146 T4         2 LUT      0.093752
    208 H171       69.5790   60.7743   49.5427 T4         2 LUT      0.093752
    209 H163       69.0787   58.6656   47.9518 T4         2 LUT      0.093752
    210 H162       68.3281   58.0263   49.4984 T4         2 LUT      0.093752
    211 H161       67.4358   58.1640   48.0016 T4         2 LUT      0.093752
    212 HO3        64.9331   61.1957   51.8358 Q1         2 LUT      0.300121
    213 H8         68.7931   62.3125   45.6981 U7         2 LUT      0.080784
    214 H7         67.6348   59.4734   46.1435 U6         2 LUT      0.042190
    215 H42        65.6009   63.3671   49.0735 U5         2 LUT      0.145166
    216 H41        67.0926   63.0347   49.9657 U5         2 LUT      0.145166
    217 H35        76.1563   64.6076   41.0990 T3         2 LUT      0.077919
    218 H34        76.9175   63.7548   38.2752 T2         2 LUT      0.073626
    219 H32        78.6592   64.2428   37.2138 T1         2 LUT      0.092510
    220 H31        80.8638   65.9374   38.7657 U9         2 LUT      0.070048
    221 H30        80.9213   64.6773   35.8897 U8         2 LUT      0.085442
    222 H3         64.7030   61.4159   49.5437 U3         2 LUT     -0.031596
    223 H28        82.3094   65.0805   34.2316 U7         2 LUT      0.084728
    224 H27        84.7384   66.5206   35.2463 U6         2 LUT      0.087291
    225 H26        84.1429   64.4346   33.3348 Q6         2 LUT      0.075325
    226 H24        85.7151   66.3342   30.1880 Q5         2 LUT      0.094482
    227 H23        87.9395   65.6983   31.5370 U3         2 LUT     -0.024869
    228 H22        65.5795   59.4494   49.2579 U2         2 LUT      0.127376
    229 H21        66.5326   59.5446   50.6815 U2         2 LUT      0.127376
    230 H15        74.7130   62.9156   38.9740 T3         2 LUT      0.093200
    231 H14        73.8546   64.0112   41.8486 T2         2 LUT      0.068865
    232 H12        71.9998   63.3972   42.7893 T1         2 LUT      0.095507
    233 H11        70.5611   60.9792   41.7181 U9         2 LUT      0.068930
    234 H10        70.2102   62.6466   44.2223 U8         2 LUT      0.083911
    235 H1         87.3536   64.5047   29.5279 Q1         2 LUT      0.297311
@<TRIPOS>BOND
    1     6     1 1
    2     7     2 1
    3     8     3 1
    4     9     4 1
    5    11     4 1
    6    12     6 1
    7    13     9 1
    8    16     9 1
    9    25     5 1
   10    25    16 1
   11    26    10 1
   12    26    17 1
   13    27    18 1
   14    28    14 1
   15    28    19 1
   16    29    12 1
   17    30    13 1
   18    31    24 1
   19    32     1 1
   20    32    25 1
   21    33    21 1
   22    33    26 1
   23    34    22 1
   24    34    27 1
   25    35    23 1
   26    35    28 1
   27    36    12 1
   28    36    24 1
   29    37    13 1
   30    37    15 1
   31    38    31 1
   32    39    20 1
   33    39    32 1
   34    40     2 1
   35    40    33 1
   36    41     3 1
   37    41    34 1
   38    42     4 1
   39    42    35 1
   40    43    38 1
   41    44     5 1
   42    44    17 1
   43    44    39 1
   44    45    10 1
   45    45    18 1
   46    45    40 1
   47    46    19 1
   48    46    41 1
   49    47    14 1
   50    47    16 1
   51    47    42 1
   52    48    38 1
   53    49    48 1
   54    50    49 1
   55    51    50 1
   56    52    51 1
   57    53    51 1
   58    54    53 1
   59    55    54 1
   60    56    55 1
   61    57    56 1
   62    58    56 1
   63    59    58 1
   64    60    59 1
   65    61    60 1
   66    62    61 1
   67    63    61 1
   68    64    27 1
   69    64    46 1
   70    65     5 1
   71    65    10 1
   72    65    64 1
   73    65    14 1
   74    66    23 1
   75    67    23 1
   76    68    23 1
   77    69    22 1
   78    70    22 1
   79    71    22 1
   80    72    21 1
   81    73    21 1
   82    74    21 1
   83    75    20 1
   84    76    20 1
   85    77    20 1
   86    78    15 1
   87    79    15 1
   88    80    15 1
   89    81     8 1
   90    82     8 1
   91    83     8 1
   92    84     7 1
   93    85     7 1
   94    86     6 1
   95    87     6 1
   96    88     3 1
   97    89     3 1
   98    90     1 1
   99    91     1 1
  100    92    63 1
  101    93    63 1
  102    94    63 1
  103    95    62 1
  104    96    62 1
  105    97    62 1
  106    98    60 1
  107    99    60 1
  108   100    59 1
  109   101    59 1
  110   102    58 1
  111   103    58 1
  112   104    57 1
  113   105    57 1
  114   106    57 1
  115   107    55 1
  116   108    55 1
  117   109    54 1
  118   110    54 1
  119   111    53 1
  120   112    53 1
  121   113    19 1
  122   114    18 1
  123   115    17 1
  124   116     9 1
  125   117     2 1
  126   118    52 1
  127   119    52 1
  128   120    52 1
  129   121    51 1
  130   122    50 1
  131   123    50 1
  132   124    49 1
  133   125    49 1
  134   126    48 1
  135   127    48 1
  136   128    43 1
  137   129    43 1
  138   130    43 1
  139   131    39 1
  140   132    32 1
  141   133    31 1
  142   134    61 1
  143   135    56 1
  144   136    24 1
  145   137    24 1
  146   139   138 1
  147   140   139 1
  148   141   140 1
  149   142   140 1
  150   143   142 1
  151   144   138 1
  152   144   143 1
  153   145   144 1
  154   146   145 1
  155   147   146 1
  156   148   147 1
  157   149   148 1
  158   150   149 1
  159   151   150 1
  160   152   151 1
  161   153   152 1
  162   154   138 1
  163   155   138 1
  164   156   143 1
  165   157   147 1
  166   158   151 1
  167   160   159 1
  168   161   160 1
  169   162   161 1
  170   163   161 1
  171   164   163 1
  172   165   159 1
  173   165   164 1
  174   166   165 1
  175   167   166 1
  176   168   167 1
  177   169   168 1
  178   170   169 1
  179   171   170 1
  180   172   171 1
  181   173   172 1
  182   174   153 1
  183   174   173 1
  184   175   159 1
  185   176   159 1
  186   177   164 1
  187   178   168 1
  188   179   172 1
  189   180   179 1
  190   181   179 1
  191   182   179 1
  192   183   178 1
  193   184   178 1
  194   185   178 1
  195   186   177 1
  196   187   177 1
  197   188   177 1
  198   189   176 1
  199   190   176 1
  200   191   176 1
  201   192   175 1
  202   193   175 1
  203   194   175 1
  204   195   160 1
  205   196   160 1
  206   197   158 1
  207   198   158 1
  208   199   158 1
  209   200   157 1
  210   201   157 1
  211   202   157 1
  212   203   156 1
  213   204   156 1
  214   205   156 1
  215   206   155 1
  216   207   155 1
  217   208   155 1
  218   209   154 1
  219   210   154 1
  220   211   154 1
  221   212   141 1
  222   213   146 1
  223   214   145 1
  224   215   142 1
  225   216   142 1
  226   217   174 1
  227   218   173 1
  228   219   171 1
  229   220   170 1
  230   221   169 1
  231   222   140 1
  232   223   167 1
  233   224   166 1
  234   225   165 1
  235   226   163 1
  236   227   161 1
  237   228   139 1
  238   229   139 1
  239   230   153 1
  240   231   152 1
  241   232   150 1
  242   233   149 1
  243   234   148 1
  244   235   162 1
  245   65    153 1
  246   65    174 1
@<TRIPOS>SUBSTRUCTURE
      1 CLA               1 ****               0 ****  **** 
      2 LUT             138 ****               0 ****  **** 
