@<TRIPOS>MOLECULE
Cpptraj generated mol2 file.
  235   246     2     0     0
SMALL
USER_CHARGES


@<TRIPOS>ATOM
      1 CAA        79.3860   57.5632   34.3735 a2         1 CLA     -0.055900
      2 CAB        80.2073   61.8041   43.0970 c8         1 CLA     -0.148500
      3 CAC        73.1124   57.7132   43.2440 a2         1 CLA     -0.012600
      4 CAD        75.3389   55.0013   36.0187 ck         1 CLA      0.398800
      5 NA         78.6568   58.1051   37.7566 ns         1 CLA     -0.225500
      6 CBA        80.5386   57.2266   33.4264 a2         1 CLA     -0.135000
      7 CBB        81.3678   61.7584   43.8196 c0         1 CLA     -0.395200
      8 CBC        73.6012   56.3536   43.8250 a3         1 CLA     -0.037700
      9 CBD        76.7095   55.5051   35.5685 a1         1 CLA     -0.053900
     10 NB         78.7331   59.7211   40.3401 nm         1 CLA     -0.295700
     11 OBD        74.6877   54.0406   35.6189 o2         1 CLA     -0.494600
     12 CGA        80.7733   55.7365   33.2236 c4         1 CLA      0.827000
     13 CGD        77.6391   54.3033   35.5695 c4         1 CLA      0.655300
     14 ND         75.8129   57.4036   38.5314 nm         1 CLA     -0.291600
     15 CED        78.8021   52.7575   36.9377 a3         1 CLA      0.005400
     16 CHA        77.1870   56.5310   36.6212 cs         1 CLA     -0.123800
     17 CHB        80.5643   59.3007   38.7315 aa         1 CLA     -0.291900
     18 CHC        77.5842   60.1738   42.4477 aa         1 CLA     -0.090400
     19 CHD        74.1932   57.2335   40.3072 aa         1 CLA     -0.052000
     20 CMA        81.8460   56.9940   37.1428 a3         1 CLA     -0.230700
     21 CMB        82.2051   61.2925   40.6693 a3         1 CLA     -0.180800
     22 CMC        75.3283   59.8725   44.6091 a3         1 CLA     -0.134000
     23 CMD        72.8489   54.9476   38.3092 a3         1 CLA     -0.141100
     24 C1         81.6888   53.7105   34.2347 a2         1 CLA      0.023000
     25 C1A        78.3633   57.2789   36.6780 ac         1 CLA     -0.015100
     26 C1B        80.0134   59.9222   39.8702 cr         1 CLA      0.054700
     27 C1C        76.3785   59.4476   42.2450 cn         1 CLA     -0.005600
     28 C1D        74.6341   56.9100   39.0359 ap         1 CLA     -0.047300
     29 O1A        80.4612   55.1537   32.2248 o2         1 CLA     -0.610800
     30 O1D        78.1833   53.7466   34.5876 o2         1 CLA     -0.558200
     31 C2         82.1843   53.3606   35.6325 c8         1 CLA     -0.325100
     32 C2A        79.5724   57.0935   35.8469 a1         1 CLA      0.098600
     33 C2B        80.7866   60.7912   40.8114 cb         1 CLA      0.088500
     34 C2C        75.3174   59.1803   43.2656 cb         1 CLA      0.053700
     35 C2D        74.0532   55.9129   38.0945 cb         1 CLA      0.058900
     36 O2A        81.4207   55.1424   34.2912 o1         1 CLA     -0.437200
     37 O2D        77.9777   53.8819   36.8897 o1         1 CLA     -0.357600
     38 C3         83.2143   52.5926   35.9962 c5         1 CLA      0.031200
     39 C3A        80.7413   57.8907   36.6265 a1         1 CLA      0.166800
     40 C3B        79.9077   60.9643   41.8941 cb         1 CLA      0.035000
     41 C3C        74.3141   58.3887   42.5673 cb         1 CLA     -0.089900
     42 C3D        75.0222   55.7345   37.1378 cb         1 CLA     -0.035900
     43 C4         82.9436   51.1724   36.3767 a3         1 CLA     -0.053300
     44 C4A        79.9623   58.4374   37.8216 ac         1 CLA      0.001800
     45 C4B        78.6745   60.2802   41.6062 cn         1 CLA     -0.020900
     46 C4C        74.8596   58.0378   41.2777 cr         1 CLA     -0.044400
     47 C4D        76.0877   56.6736   37.4016 c6         1 CLA     -0.046000
     48 C5         84.6595   53.2282   36.1196 a2         1 CLA     -0.070400
     49 C6         84.8871   53.9335   37.4933 a2         1 CLA      0.043900
     50 C7         86.0784   54.9607   37.4912 a2         1 CLA     -0.150000
     51 C8         86.3404   55.6393   38.9314 a1         1 CLA      0.064200
     52 C9         85.6244   56.9706   38.8976 a3         1 CLA     -0.259300
     53 C10        87.8353   55.7675   39.2968 a2         1 CLA     -0.071900
     54 C11        88.1277   56.4375   40.6258 a2         1 CLA      0.014500
     55 C12        87.5734   55.7895   41.9431 a2         1 CLA     -0.112100
     56 C13        88.0000   56.6053   43.2681 a1         1 CLA      0.089200
     57 C14        87.9595   55.6733   44.4894 a3         1 CLA     -0.239100
     58 C15        87.2608   57.9340   43.6879 a2         1 CLA     -0.102200
     59 C16        85.6832   58.0356   43.7650 a2         1 CLA      0.023900
     60 C17        85.0996   57.4730   45.1506 a2         1 CLA     -0.105700
     61 C18        83.6845   57.9928   45.4799 a1         1 CLA      0.206800
     62 C19        82.9585   56.8951   46.3752 a3         1 CLA     -0.280100
     63 C20        83.8049   59.3734   46.3511 a3         1 CLA     -0.280100
     64 NC         76.0501   58.6980   41.0683 nx         1 CLA     -0.309200
     65 MG         77.2327   58.5753   39.3389 mg         1 CLA      0.895000
     66 HMD3       71.9589   55.4656   38.5264 dc         1 CLA      0.064300
     67 HMD2       72.5159   54.3642   37.4669 dc         1 CLA      0.064300
     68 HMD1       73.1130   54.1700   38.9978 dc         1 CLA      0.064300
     69 HMC3       74.8155   60.8756   44.6093 dc         1 CLA      0.052100
     70 HMC2       74.7131   59.3187   45.3695 dc         1 CLA      0.052100
     71 HMC1       76.3056   60.0696   45.0780 dc         1 CLA      0.052100
     72 HMB3       82.9210   60.5550   41.0771 dc         1 CLA      0.063600
     73 HMB2       82.3941   61.3635   39.5980 dc         1 CLA      0.063600
     74 HMB1       82.3149   62.3372   41.0348 dc         1 CLA      0.063600
     75 HMA3       81.3350   56.4800   37.9152 dc         1 CLA      0.058300
     76 HMA2       82.2049   56.2400   36.4572 dc         1 CLA      0.058300
     77 HMA1       82.6726   57.5949   37.6109 dc         1 CLA      0.058300
     78 HED3       79.6927   52.8106   36.2712 dc         1 CLA      0.079300
     79 HED2       79.1920   52.6739   37.9056 dc         1 CLA      0.079300
     80 HED1       78.1853   51.9015   36.7462 dc         1 CLA      0.079300
     81 HBC3       73.8233   55.7926   42.9440 dc         1 CLA      0.016300
     82 HBC2       74.4394   56.5445   44.4735 dc         1 CLA      0.016300
     83 HBC1       72.7994   55.8264   44.4392 dc         1 CLA      0.016300
     84 HBB2       81.3769   62.3199   44.7299 da         1 CLA      0.183000
     85 HBB1       82.2262   60.9939   43.5748 da         1 CLA      0.183000
     86 HBA2       80.2987   57.6756   32.5066 dc         1 CLA      0.029400
     87 HBA1       81.4307   57.5679   33.8946 dc         1 CLA      0.029400
     88 HAC2       72.7460   58.2975   44.1529 dc         1 CLA      0.029300
     89 HAC1       72.4271   57.5546   42.4426 dc         1 CLA      0.029300
     90 HAA2       78.4703   57.0814   33.9897 dc         1 CLA      0.028700
     91 HAA1       79.1490   58.6072   34.4129 dc         1 CLA      0.028700
     92 H203       84.3927   59.1786   47.2621 dc         1 CLA      0.065600
     93 H202       84.2696   60.1773   45.7462 dc         1 CLA      0.065600
     94 H201       82.8277   59.7390   46.6364 dc         1 CLA      0.065600
     95 H193       82.9047   55.9346   45.8977 dc         1 CLA      0.065600
     96 H192       83.6184   56.8499   47.2408 dc         1 CLA      0.065600
     97 H191       81.9682   57.2408   46.7479 dc         1 CLA      0.065600
     98 H172       85.0843   56.3925   45.3242 dc         1 CLA      0.027600
     99 H171       85.8477   57.7387   45.8443 dc         1 CLA      0.027600
    100 H162       85.3453   59.0790   43.6917 dc         1 CLA      0.002900
    101 H161       85.3178   57.4388   42.9150 dc         1 CLA      0.002900
    102 H152       87.7228   58.3702   44.6037 dc         1 CLA      0.029100
    103 H151       87.4375   58.5948   42.8073 dc         1 CLA      0.029100
    104 H143       88.7502   54.8610   44.5008 dc         1 CLA      0.063600
    105 H142       88.2594   56.2581   45.4142 dc         1 CLA      0.063600
    106 H141       86.9467   55.2889   44.5003 dc         1 CLA      0.063600
    107 H122       86.4963   55.6384   41.9692 dc         1 CLA      0.032500
    108 H121       87.9981   54.7369   41.9841 dc         1 CLA      0.032500
    109 H112       89.1513   56.5870   40.7235 dc         1 CLA      0.006600
    110 H111       87.7838   57.4477   40.5959 dc         1 CLA      0.006600
    111 H102       88.2675   54.7935   39.2552 dc         1 CLA      0.024100
    112 H101       88.3525   56.3070   38.4957 dc         1 CLA      0.024100
    113 HHD        73.2027   56.7581   40.5292 da         1 CLA      0.174300
    114 HHC        77.7722   60.5560   43.4910 da         1 CLA      0.136800
    115 HHB        81.6533   59.5501   38.5287 da         1 CLA      0.138300
    116 HBD        76.6131   55.8051   34.5412 dc         1 CLA      0.107700
    117 HAB        79.4125   62.4697   43.4451 da         1 CLA      0.155200
    118 H93        84.6364   56.8073   38.5635 dc         1 CLA      0.069500
    119 H92        85.4579   57.5153   39.8413 dc         1 CLA      0.069500
    120 H91        86.2452   57.6689   38.3291 dc         1 CLA      0.069500
    121 H8         85.9375   55.0698   39.7621 dc         1 CLA      0.029300
    122 H72        86.9939   54.4658   37.2043 dc         1 CLA      0.044400
    123 H71        85.9381   55.6577   36.6552 dc         1 CLA      0.044400
    124 H62        83.9723   54.4057   37.8694 dc         1 CLA      0.015600
    125 H61        85.0311   53.0403   38.1663 dc         1 CLA      0.015600
    126 H52        85.4382   52.5246   35.9799 dc         1 CLA      0.033200
    127 H51        84.6040   54.0217   35.2953 dc         1 CLA      0.033200
    128 H43        81.8810   50.9329   36.3115 dc         1 CLA      0.037000
    129 H42        83.4571   50.5296   35.6298 dc         1 CLA      0.037000
    130 H41        83.2416   51.0182   37.4219 dc         1 CLA      0.037000
    131 H3A        81.2252   58.7264   36.1384 dc         1 CLA      0.041100
    132 H2A        79.9002   56.0614   35.9051 dc         1 CLA      0.083100
    133 H2         81.7869   53.8271   36.5419 da         1 CLA      0.180900
    134 H18        83.2341   58.2534   44.4768 dc         1 CLA     -0.003900
    135 H13        89.0304   56.9264   43.1041 dc         1 CLA      0.019700
    136 H12        80.8643   53.0376   34.0420 dc         1 CLA      0.120400
    137 H11        82.4070   53.5298   33.3765 dc         1 CLA      0.120400
    138 C1         69.7982   61.2815   50.2809 Z1         2 LUT      0.509236
    139 C2         68.4149   61.1950   51.0279 Z2         2 LUT     -0.434695
    140 C3         67.5305   62.4500   51.0867 Z3         2 LUT      0.437453
    141 O3         67.5073   62.9714   52.4200 S1         2 LUT     -0.547129
    142 C4         68.0373   63.5291   50.1317 Z4         2 LUT     -0.468603
    143 C5         68.8761   63.1909   48.9542 Z5         2 LUT      0.279246
    144 C6         69.6904   62.1266   49.0657 Z6         2 LUT     -0.305473
    145 C7         70.0715   61.5075   47.7238 Z7         2 LUT      0.069402
    146 C8         70.7011   62.2736   46.7712 Z8         2 LUT     -0.191631
    147 C9         71.2775   61.7838   45.5160 Z9         2 LUT      0.196698
    148 C10        72.0454   62.7303   44.7976 Y1         2 LUT     -0.208611
    149 C11        72.8244   62.5535   43.6225 Y2         2 LUT      0.030784
    150 C12        73.8743   63.4377   43.2106 Y3         2 LUT     -0.220316
    151 C13        74.8704   63.1412   42.1963 Y4         2 LUT      0.215937
    152 C14        76.1210   63.7192   42.2818 Y5         2 LUT     -0.185793
    153 C15        77.1688   63.4805   41.3472 Y6         2 LUT     -0.057835
    154 C16        70.4620   59.8836   50.2733 Y7         2 LUT     -0.405615
    155 C17        70.6273   61.9483   51.4005 Y7         2 LUT     -0.405615
    156 C18        68.3227   63.7684   47.6148 Y9         2 LUT     -0.369639
    157 C19        70.9494   60.4176   45.0478 W1         2 LUT     -0.333362
    158 C20        74.3087   62.4782   40.9013 W2         2 LUT     -0.323439
    159 C21        88.7634   64.5817   35.4194 Z1         2 LUT      0.406104
    160 C22        89.5250   63.9071   34.2232 Z2         2 LUT     -0.404965
    161 C23        89.8848   64.7158   33.0129 Z3         2 LUT      0.391255
    162 O23        90.6861   63.8706   32.1485 S1         2 LUT     -0.528210
    163 C24        88.5952   65.3672   32.5420 W6         2 LUT     -0.258361
    164 C25        87.4733   65.6224   33.3212 Z5         2 LUT      0.133546
    165 C26        87.3690   65.0192   34.7910 W8         2 LUT     -0.147008
    166 C27        86.5097   65.7738   35.8048 Z7         2 LUT      0.023843
    167 C28        85.3476   65.3492   36.3592 Z8         2 LUT     -0.216987
    168 C29        84.6747   65.7768   37.6399 Z9         2 LUT      0.206524
    169 C30        83.5878   65.1318   37.9716 Y1         2 LUT     -0.215556
    170 C31        82.7890   65.1891   39.1473 Y2         2 LUT      0.025142
    171 C32        81.5925   64.5414   39.1778 Y3         2 LUT     -0.212209
    172 C33        80.6106   64.6763   40.2255 Y4         2 LUT      0.240937
    173 C34        79.3748   64.1072   40.1689 Y5         2 LUT     -0.218862
    174 C35        78.3413   64.2191   41.1960 Y6         2 LUT     -0.023547
    175 C36        89.6733   65.7655   35.8637 Y7         2 LUT     -0.393485
    176 C37        88.7771   63.6067   36.5265 Y7         2 LUT     -0.393485
    177 C38        86.2893   66.4064   32.7791 Y9         2 LUT     -0.387526
    178 C39        85.2835   67.0104   38.4161 W1         2 LUT     -0.322618
    179 C40        81.0860   65.1685   41.6203 W2         2 LUT     -0.358472
    180 H403       81.1440   66.2081   41.6415 R7         2 LUT      0.097720
    181 H402       80.5035   64.8810   42.4746 R7         2 LUT      0.097720
    182 H401       82.1029   64.7952   41.7391 R7         2 LUT      0.097720
    183 H393       84.7516   67.1982   39.3377 R4         2 LUT      0.082505
    184 H392       86.3249   66.9274   38.7192 R4         2 LUT      0.082505
    185 H391       85.2584   67.9415   37.8716 R4         2 LUT      0.082505
    186 H383       85.5803   66.6859   33.6121 R1         2 LUT      0.104030
    187 H382       86.6342   67.3770   32.2857 R1         2 LUT      0.104030
    188 H381       85.6591   65.8050   32.0576 R1         2 LUT      0.104030
    189 H373       89.7335   63.3669   36.9497 T4         2 LUT      0.089537
    190 H372       88.1182   63.7707   37.3732 T4         2 LUT      0.089537
    191 H371       88.4222   62.5985   36.2044 T4         2 LUT      0.089537
    192 H363       89.2802   66.2491   36.8047 T4         2 LUT      0.089537
    193 H362       90.6539   65.4439   36.0769 T4         2 LUT      0.089537
    194 H361       89.7082   66.5650   35.1075 T4         2 LUT      0.089537
    195 H222       90.5036   63.5549   34.6133 U2         2 LUT      0.127376
    196 H221       89.0535   62.9205   33.9838 U2         2 LUT      0.127376
    197 H203       74.1466   61.4007   41.0202 R7         2 LUT      0.087068
    198 H202       73.3561   62.9621   40.6579 R7         2 LUT      0.087068
    199 H201       74.9038   62.6058   40.0077 R7         2 LUT      0.087068
    200 H193       69.8791   60.1813   45.0914 R4         2 LUT      0.089716
    201 H192       71.3383   60.2501   44.0414 R4         2 LUT      0.089716
    202 H191       71.4999   59.6247   45.6386 R4         2 LUT      0.089716
    203 H183       68.9656   64.5712   47.2631 R1         2 LUT      0.094572
    204 H182       68.3161   63.1158   46.7305 R1         2 LUT      0.094572
    205 H181       67.2986   64.1943   47.6227 R1         2 LUT      0.094572
    206 H173       70.8482   61.3490   52.2484 T4         2 LUT      0.093752
    207 H172       71.6277   62.2677   51.0874 T4         2 LUT      0.093752
    208 H171       70.1674   62.8273   51.9007 T4         2 LUT      0.093752
    209 H163       71.3167   59.8788   49.6951 T4         2 LUT      0.093752
    210 H162       70.6441   59.3616   51.2322 T4         2 LUT      0.093752
    211 H161       69.8207   59.1699   49.7441 T4         2 LUT      0.093752
    212 HO3        66.7962   62.4739   52.9280 Q1         2 LUT      0.300121
    213 H8         70.9289   63.2849   46.9564 U7         2 LUT      0.080784
    214 H7         69.8531   60.4888   47.5721 U6         2 LUT      0.042190
    215 H42        67.2131   64.0423   49.8157 U5         2 LUT      0.145166
    216 H41        68.5276   64.3111   50.7403 U5         2 LUT      0.145166
    217 H35        78.3684   64.9504   41.9404 T3         2 LUT      0.077919
    218 H34        79.2021   63.5009   39.2530 T2         2 LUT      0.073626
    219 H32        81.2270   63.9105   38.3538 T1         2 LUT      0.092510
    220 H31        82.9438   65.9018   39.9153 U9         2 LUT      0.070048
    221 H30        83.2580   64.3370   37.3009 U8         2 LUT      0.085442
    222 H3         66.5367   62.1321   50.6450 U3         2 LUT     -0.031596
    223 H28        84.8702   64.4811   35.9534 U7         2 LUT      0.084728
    224 H27        86.9745   66.5444   36.3184 U6         2 LUT      0.087291
    225 H26        86.8186   64.0821   34.6808 Q6         2 LUT      0.075325
    226 H24        88.5498   65.8282   31.5693 Q5         2 LUT      0.094482
    227 H23        90.6189   65.3320   33.4515 U3         2 LUT     -0.024869
    228 H22        67.7456   60.5414   50.5436 U2         2 LUT      0.127376
    229 H21        68.5701   60.8889   52.0980 U2         2 LUT      0.127376
    230 H15        77.0308   62.6754   40.6801 T3         2 LUT      0.093200
    231 H14        76.3141   64.4872   43.0144 T2         2 LUT      0.068865
    232 H12        74.0586   64.2650   43.8052 T1         2 LUT      0.095507
    233 H11        72.7611   61.5334   43.0495 U9         2 LUT      0.068930
    234 H10        72.1966   63.7347   45.3100 U8         2 LUT      0.083911
    235 H1         90.3102   63.4545   31.3492 Q1         2 LUT      0.297311
@<TRIPOS>BOND
    1     6     1 1
    2     7     2 1
    3     8     3 1
    4     9     4 1
    5    11     4 1
    6    12     6 1
    7    13     9 1
    8    16     9 1
    9    25     5 1
   10    25    16 1
   11    26    10 1
   12    26    17 1
   13    27    18 1
   14    28    14 1
   15    28    19 1
   16    29    12 1
   17    30    13 1
   18    31    24 1
   19    32     1 1
   20    32    25 1
   21    33    21 1
   22    33    26 1
   23    34    22 1
   24    34    27 1
   25    35    23 1
   26    35    28 1
   27    36    12 1
   28    36    24 1
   29    37    13 1
   30    37    15 1
   31    38    31 1
   32    39    20 1
   33    39    32 1
   34    40     2 1
   35    40    33 1
   36    41     3 1
   37    41    34 1
   38    42     4 1
   39    42    35 1
   40    43    38 1
   41    44     5 1
   42    44    17 1
   43    44    39 1
   44    45    10 1
   45    45    18 1
   46    45    40 1
   47    46    19 1
   48    46    41 1
   49    47    14 1
   50    47    16 1
   51    47    42 1
   52    48    38 1
   53    49    48 1
   54    50    49 1
   55    51    50 1
   56    52    51 1
   57    53    51 1
   58    54    53 1
   59    55    54 1
   60    56    55 1
   61    57    56 1
   62    58    56 1
   63    59    58 1
   64    60    59 1
   65    61    60 1
   66    62    61 1
   67    63    61 1
   68    64    27 1
   69    64    46 1
   70    65     5 1
   71    65    10 1
   72    65    64 1
   73    65    14 1
   74    66    23 1
   75    67    23 1
   76    68    23 1
   77    69    22 1
   78    70    22 1
   79    71    22 1
   80    72    21 1
   81    73    21 1
   82    74    21 1
   83    75    20 1
   84    76    20 1
   85    77    20 1
   86    78    15 1
   87    79    15 1
   88    80    15 1
   89    81     8 1
   90    82     8 1
   91    83     8 1
   92    84     7 1
   93    85     7 1
   94    86     6 1
   95    87     6 1
   96    88     3 1
   97    89     3 1
   98    90     1 1
   99    91     1 1
  100    92    63 1
  101    93    63 1
  102    94    63 1
  103    95    62 1
  104    96    62 1
  105    97    62 1
  106    98    60 1
  107    99    60 1
  108   100    59 1
  109   101    59 1
  110   102    58 1
  111   103    58 1
  112   104    57 1
  113   105    57 1
  114   106    57 1
  115   107    55 1
  116   108    55 1
  117   109    54 1
  118   110    54 1
  119   111    53 1
  120   112    53 1
  121   113    19 1
  122   114    18 1
  123   115    17 1
  124   116     9 1
  125   117     2 1
  126   118    52 1
  127   119    52 1
  128   120    52 1
  129   121    51 1
  130   122    50 1
  131   123    50 1
  132   124    49 1
  133   125    49 1
  134   126    48 1
  135   127    48 1
  136   128    43 1
  137   129    43 1
  138   130    43 1
  139   131    39 1
  140   132    32 1
  141   133    31 1
  142   134    61 1
  143   135    56 1
  144   136    24 1
  145   137    24 1
  146   139   138 1
  147   140   139 1
  148   141   140 1
  149   142   140 1
  150   143   142 1
  151   144   138 1
  152   144   143 1
  153   145   144 1
  154   146   145 1
  155   147   146 1
  156   148   147 1
  157   149   148 1
  158   150   149 1
  159   151   150 1
  160   152   151 1
  161   153   152 1
  162   154   138 1
  163   155   138 1
  164   156   143 1
  165   157   147 1
  166   158   151 1
  167   160   159 1
  168   161   160 1
  169   162   161 1
  170   163   161 1
  171   164   163 1
  172   165   159 1
  173   165   164 1
  174   166   165 1
  175   167   166 1
  176   168   167 1
  177   169   168 1
  178   170   169 1
  179   171   170 1
  180   172   171 1
  181   173   172 1
  182   174   153 1
  183   174   173 1
  184   175   159 1
  185   176   159 1
  186   177   164 1
  187   178   168 1
  188   179   172 1
  189   180   179 1
  190   181   179 1
  191   182   179 1
  192   183   178 1
  193   184   178 1
  194   185   178 1
  195   186   177 1
  196   187   177 1
  197   188   177 1
  198   189   176 1
  199   190   176 1
  200   191   176 1
  201   192   175 1
  202   193   175 1
  203   194   175 1
  204   195   160 1
  205   196   160 1
  206   197   158 1
  207   198   158 1
  208   199   158 1
  209   200   157 1
  210   201   157 1
  211   202   157 1
  212   203   156 1
  213   204   156 1
  214   205   156 1
  215   206   155 1
  216   207   155 1
  217   208   155 1
  218   209   154 1
  219   210   154 1
  220   211   154 1
  221   212   141 1
  222   213   146 1
  223   214   145 1
  224   215   142 1
  225   216   142 1
  226   217   174 1
  227   218   173 1
  228   219   171 1
  229   220   170 1
  230   221   169 1
  231   222   140 1
  232   223   167 1
  233   224   166 1
  234   225   165 1
  235   226   163 1
  236   227   161 1
  237   228   139 1
  238   229   139 1
  239   230   153 1
  240   231   152 1
  241   232   150 1
  242   233   149 1
  243   234   148 1
  244   235   162 1
  245   65    153 1
  246   65    174 1
@<TRIPOS>SUBSTRUCTURE
      1 CLA               1 ****               0 ****  **** 
      2 LUT             138 ****               0 ****  **** 
