@<TRIPOS>MOLECULE
Cpptraj generated mol2 file.
  235   246     2     0     0
SMALL
USER_CHARGES


@<TRIPOS>ATOM
      1 CAA        78.6716   57.5165   34.3500 a2         1 CLA     -0.055900
      2 CAB        77.5717   61.5657   43.2167 c8         1 CLA     -0.148500
      3 CAC        71.4427   56.4381   42.5314 a2         1 CLA     -0.012600
      4 CAD        74.5332   54.6128   35.0683 ck         1 CLA      0.398800
      5 NA         77.2409   57.8745   37.6259 ns         1 CLA     -0.225500
      6 CBA        80.0252   57.7537   33.6157 a2         1 CLA     -0.135000
      7 CBB        78.6590   61.7087   44.0319 c0         1 CLA     -0.395200
      8 CBC        71.7596   54.9429   42.5001 a3         1 CLA     -0.037700
      9 CBD        76.0496   55.2401   34.9734 a1         1 CLA     -0.053900
     10 NB         76.8060   59.4923   40.1606 nm         1 CLA     -0.295700
     11 OBD        74.0396   53.7753   34.2700 o2         1 CLA     -0.494600
     12 CGA        80.8279   56.4665   33.4174 c4         1 CLA      0.827000
     13 CGD        77.1992   54.2592   34.9106 c4         1 CLA      0.655300
     14 ND         74.5403   56.6776   38.0004 nm         1 CLA     -0.291600
     15 CED        78.0453   52.2979   36.2057 a3         1 CLA      0.005400
     16 CHA        76.1530   56.2029   36.1945 cs         1 CLA     -0.123800
     17 CHB        78.7777   59.4631   38.7067 aa         1 CLA     -0.291900
     18 CHC        75.4120   59.4746   42.1481 aa         1 CLA     -0.090400
     19 CHD        72.6467   56.3614   39.4930 aa         1 CLA     -0.052000
     20 CMA        80.4986   57.2109   37.7208 a3         1 CLA     -0.230700
     21 CMB        79.7915   61.4627   40.8730 a3         1 CLA     -0.180800
     22 CMC        73.1100   58.6544   44.0909 a3         1 CLA     -0.134000
     23 CMD        71.7748   54.2055   37.1958 a3         1 CLA     -0.141100
     24 C1         82.4489   55.0866   34.3770 a2         1 CLA      0.023000
     25 C1A        77.2511   56.9986   36.5757 ac         1 CLA     -0.015100
     26 C1B        78.0688   59.8972   39.8455 cr         1 CLA      0.054700
     27 C1C        74.3258   58.6933   41.7496 cn         1 CLA     -0.005600
     28 C1D        73.2781   56.1310   38.2531 ap         1 CLA     -0.047300
     29 O1A        80.6935   55.5983   32.5038 o2         1 CLA     -0.610800
     30 O1D        78.1656   54.2894   34.1534 o2         1 CLA     -0.558200
     31 C2         83.1328   54.9805   35.7065 c8         1 CLA     -0.325100
     32 C2A        78.6584   57.0417   35.8522 a1         1 CLA      0.098600
     33 C2B        78.5544   60.6995   40.9592 cb         1 CLA      0.088500
     34 C2C        73.2550   58.2295   42.6529 cb         1 CLA      0.053700
     35 C2D        72.9142   55.1867   37.2391 cb         1 CLA      0.058900
     36 O2A        81.6991   56.3458   34.4087 o1         1 CLA     -0.437200
     37 O2D        77.0206   53.3902   35.9154 o1         1 CLA     -0.357600
     38 C3         83.1977   53.8238   36.3672 c5         1 CLA      0.031200
     39 C3A        79.4874   57.9647   36.8279 a1         1 CLA      0.166800
     40 C3B        77.5543   60.7601   41.9620 cb         1 CLA      0.035000
     41 C3C        72.4955   57.2523   41.9227 cb         1 CLA     -0.089900
     42 C3D        74.0327   55.1708   36.3838 cb         1 CLA     -0.035900
     43 C4         82.0674   53.4304   37.3580 a3         1 CLA     -0.053300
     44 C4A        78.4193   58.5062   37.7272 ac         1 CLA      0.001800
     45 C4B        76.5412   59.8850   41.4634 cn         1 CLA     -0.020900
     46 C4C        73.0804   57.2441   40.5448 cr         1 CLA     -0.044400
     47 C4D        74.9784   56.1138   36.8728 c6         1 CLA     -0.046000
     48 C5         84.4441   52.9501   36.2878 a2         1 CLA     -0.070400
     49 C6         85.7017   53.6577   36.7594 a2         1 CLA      0.043900
     50 C7         85.6085   54.1717   38.1812 a2         1 CLA     -0.150000
     51 C8         86.5826   55.3414   38.4730 a1         1 CLA      0.064200
     52 C9         88.0425   54.7727   38.2797 a3         1 CLA     -0.259300
     53 C10        86.3430   55.9914   39.8679 a2         1 CLA     -0.071900
     54 C11        85.0043   56.7044   40.0111 a2         1 CLA      0.014500
     55 C12        85.0536   57.6359   41.2159 a2         1 CLA     -0.112100
     56 C13        85.1521   56.9775   42.6266 a1         1 CLA      0.089200
     57 C14        84.3075   55.7427   42.8717 a3         1 CLA     -0.239100
     58 C15        85.0609   58.0259   43.8440 a2         1 CLA     -0.102200
     59 C16        83.6938   58.8334   43.8743 a2         1 CLA      0.023900
     60 C17        83.4986   59.4646   45.2638 a2         1 CLA     -0.105700
     61 C18        82.0642   59.9480   45.5835 a1         1 CLA      0.206800
     62 C19        81.0085   58.8110   45.6730 a3         1 CLA     -0.280100
     63 C20        82.0122   60.8422   46.8214 a3         1 CLA     -0.280100
     64 NC         74.2177   58.0362   40.5340 nx         1 CLA     -0.309200
     65 MG         75.5647   58.2448   38.9230 mg         1 CLA      0.895000
     66 HMD3       72.1637   53.2853   36.7948 dc         1 CLA      0.064300
     67 HMD2       71.2975   54.1416   38.1684 dc         1 CLA      0.064300
     68 HMD1       70.9850   54.6985   36.6265 dc         1 CLA      0.064300
     69 HMC3       72.1174   58.9625   44.3635 dc         1 CLA      0.052100
     70 HMC2       73.5582   57.9616   44.8149 dc         1 CLA      0.052100
     71 HMC1       73.6786   59.5285   44.2719 dc         1 CLA      0.052100
     72 HMB3       79.8124   61.9321   39.8808 dc         1 CLA      0.063600
     73 HMB2       79.9625   62.1975   41.6356 dc         1 CLA      0.063600
     74 HMB1       80.6486   60.8089   40.9795 dc         1 CLA      0.063600
     75 HMA3       81.0019   57.7694   38.4516 dc         1 CLA      0.058300
     76 HMA2       79.9744   56.4115   38.2241 dc         1 CLA      0.058300
     77 HMA1       81.3351   56.7474   37.1519 dc         1 CLA      0.058300
     78 HED3       78.3555   51.8654   35.2771 dc         1 CLA      0.079300
     79 HED2       78.9368   52.6546   36.6979 dc         1 CLA      0.079300
     80 HED1       77.5580   51.6467   36.9607 dc         1 CLA      0.079300
     81 HBC3       71.8717   54.5483   41.4600 dc         1 CLA      0.016300
     82 HBC2       72.7100   54.6529   43.0777 dc         1 CLA      0.016300
     83 HBC1       70.9893   54.3391   42.9535 dc         1 CLA      0.016300
     84 HBB2       78.5283   62.2220   44.9594 da         1 CLA      0.183000
     85 HBB1       79.6380   61.3717   43.7128 da         1 CLA      0.183000
     86 HBA2       79.8178   58.2792   32.6477 dc         1 CLA      0.029400
     87 HBA1       80.5544   58.5004   34.2491 dc         1 CLA      0.029400
     88 HAC2       71.2410   56.7456   43.5456 dc         1 CLA      0.029300
     89 HAC1       70.5581   56.3979   41.9400 dc         1 CLA      0.029300
     90 HAA2       78.0314   56.8319   33.7942 dc         1 CLA      0.028700
     91 HAA1       78.2116   58.4675   34.3699 dc         1 CLA      0.028700
     92 H203       81.0611   61.2436   46.9102 dc         1 CLA      0.065600
     93 H202       82.2776   60.2289   47.6513 dc         1 CLA      0.065600
     94 H201       82.7023   61.7212   46.7159 dc         1 CLA      0.065600
     95 H193       80.0752   59.2510   45.7314 dc         1 CLA      0.065600
     96 H192       81.0372   58.2411   44.6751 dc         1 CLA      0.065600
     97 H191       81.1401   58.0857   46.5623 dc         1 CLA      0.065600
     98 H172       83.8152   58.7243   45.9964 dc         1 CLA      0.027600
     99 H171       84.1553   60.3607   45.4254 dc         1 CLA      0.027600
    100 H162       83.7276   59.6206   43.1570 dc         1 CLA      0.002900
    101 H161       83.0266   58.0620   43.6963 dc         1 CLA      0.002900
    102 H152       85.1246   57.4283   44.7832 dc         1 CLA      0.029100
    103 H151       85.8358   58.7920   43.8352 dc         1 CLA      0.029100
    104 H143       83.2076   55.9068   42.4862 dc         1 CLA      0.063600
    105 H142       84.7458   54.8761   42.3484 dc         1 CLA      0.063600
    106 H141       84.1991   55.5103   43.9319 dc         1 CLA      0.063600
    107 H122       85.8491   58.3856   41.2019 dc         1 CLA      0.032500
    108 H121       84.1368   58.1488   41.0596 dc         1 CLA      0.032500
    109 H112       84.8302   57.4232   39.2212 dc         1 CLA      0.006600
    110 H111       84.1044   56.0606   40.1713 dc         1 CLA      0.006600
    111 H102       86.3778   55.2043   40.5870 dc         1 CLA      0.024100
    112 H101       87.1255   56.7442   39.9686 dc         1 CLA      0.024100
    113 HHD        71.8621   55.6476   39.7474 da         1 CLA      0.174300
    114 HHC        75.4750   59.8079   43.2045 da         1 CLA      0.136800
    115 HHB        79.7790   59.8011   38.6550 da         1 CLA      0.138300
    116 HBD        76.0091   55.8688   34.0852 dc         1 CLA      0.107700
    117 HAB        76.5507   61.8996   43.5415 da         1 CLA      0.155200
    118 H93        88.3721   54.3606   37.3139 dc         1 CLA      0.069500
    119 H92        88.7660   55.5289   38.5880 dc         1 CLA      0.069500
    120 H91        88.1182   53.9509   38.9229 dc         1 CLA      0.069500
    121 H8         86.4032   56.1787   37.7984 dc         1 CLA      0.029300
    122 H72        84.6192   54.5102   38.4776 dc         1 CLA      0.044400
    123 H71        85.8128   53.4464   38.9332 dc         1 CLA      0.044400
    124 H62        86.5847   52.9387   36.5810 dc         1 CLA      0.015600
    125 H61        85.8064   54.5315   36.2065 dc         1 CLA      0.015600
    126 H52        84.3383   51.9462   36.7901 dc         1 CLA      0.033200
    127 H51        84.6280   52.7124   35.1812 dc         1 CLA      0.033200
    128 H43        81.4808   52.6856   36.9442 dc         1 CLA      0.037000
    129 H42        82.4486   53.0532   38.3266 dc         1 CLA      0.037000
    130 H41        81.4812   54.3320   37.4642 dc         1 CLA      0.037000
    131 H3A        79.9988   58.7695   36.3814 dc         1 CLA      0.041100
    132 H2A        78.9479   55.9975   35.8172 dc         1 CLA      0.083100
    133 H2         83.3869   55.9625   36.2392 da         1 CLA      0.180900
    134 H18        81.7204   60.6294   44.7649 dc         1 CLA     -0.003900
    135 H13        86.1252   56.6675   42.7119 dc         1 CLA      0.019700
    136 H12        81.8438   54.2010   34.2217 dc         1 CLA      0.120400
    137 H11        83.2778   55.2446   33.6589 dc         1 CLA      0.120400
    138 C1         67.5922   60.4550   49.7638 Z1         2 LUT      0.509236
    139 C2         66.2777   60.3453   50.5592 Z2         2 LUT     -0.434695
    140 C3         65.4400   61.6081   50.8122 Z3         2 LUT      0.437453
    141 O3         65.6865   62.0000   52.2024 S1         2 LUT     -0.547129
    142 C4         65.8302   62.8130   49.9017 Z4         2 LUT     -0.468603
    143 C5         66.7522   62.5456   48.6660 Z5         2 LUT      0.279246
    144 C6         67.5406   61.4368   48.5944 Z6         2 LUT     -0.305473
    145 C7         68.0668   60.9091   47.2408 Z7         2 LUT      0.069402
    146 C8         68.7904   61.5805   46.3588 Z8         2 LUT     -0.191631
    147 C9         69.4255   61.0489   45.1346 Z9         2 LUT      0.196698
    148 C10        70.4275   61.8526   44.5841 Y1         2 LUT     -0.208611
    149 C11        71.2240   61.5984   43.3763 Y2         2 LUT      0.030784
    150 C12        72.3118   62.3835   43.0301 Y3         2 LUT     -0.220316
    151 C13        73.3322   62.2667   42.0372 Y4         2 LUT      0.215937
    152 C14        74.3983   63.1540   42.1680 Y5         2 LUT     -0.185793
    153 C15        75.5609   63.3256   41.2686 Y6         2 LUT     -0.057835
    154 C16        68.1982   58.9778   49.4855 Y7         2 LUT     -0.405615
    155 C17        68.5987   61.0776   50.8361 Y7         2 LUT     -0.405615
    156 C18        66.4107   63.4369   47.4602 Y9         2 LUT     -0.369639
    157 C19        68.9898   59.6558   44.7260 W1         2 LUT     -0.333362
    158 C20        72.8870   61.4828   40.8507 W2         2 LUT     -0.323439
    159 C21        86.7029   64.9300   35.6420 Z1         2 LUT      0.406104
    160 C22        87.3510   64.2680   34.4409 Z2         2 LUT     -0.404965
    161 C23        87.5497   65.1162   33.2514 Z3         2 LUT      0.391255
    162 O23        88.2738   64.4661   32.2188 S1         2 LUT     -0.528210
    163 C24        86.3490   65.9395   32.9371 W6         2 LUT     -0.258361
    164 C25        85.2253   65.9686   33.6778 Z5         2 LUT      0.133546
    165 C26        85.2673   65.3901   35.1268 W8         2 LUT     -0.147008
    166 C27        84.5758   66.2786   36.1813 Z7         2 LUT      0.023843
    167 C28        83.4331   65.8694   36.8545 Z8         2 LUT     -0.216987
    168 C29        82.8146   66.3759   38.1023 Z9         2 LUT      0.206524
    169 C30        81.7288   65.6799   38.5075 Y1         2 LUT     -0.215556
    170 C31        80.9735   65.7462   39.7098 Y2         2 LUT      0.025142
    171 C32        79.7955   64.9889   39.8235 Y3         2 LUT     -0.212209
    172 C33        78.9185   64.8849   40.9400 Y4         2 LUT      0.240937
    173 C34        77.7742   64.1911   40.7182 Y5         2 LUT     -0.218862
    174 C35        76.6518   64.0447   41.6343 Y6         2 LUT     -0.023547
    175 C36        87.7075   65.9512   36.1202 Y7         2 LUT     -0.393485
    176 C37        86.5067   63.8566   36.7257 Y7         2 LUT     -0.393485
    177 C38        83.9500   66.7461   33.0922 Y9         2 LUT     -0.387526
    178 C39        83.4278   67.6025   38.6416 W1         2 LUT     -0.322618
    179 C40        79.3880   65.2071   42.3319 W2         2 LUT     -0.358472
    180 H403       79.3054   64.3027   42.9108 R7         2 LUT      0.097720
    181 H402       80.3220   65.6563   42.5365 R7         2 LUT      0.097720
    182 H401       78.7743   66.0157   42.7303 R7         2 LUT      0.097720
    183 H393       83.0923   67.9774   39.6158 R4         2 LUT      0.082505
    184 H392       84.5443   67.5458   38.7120 R4         2 LUT      0.082505
    185 H391       83.3146   68.5055   37.9901 R4         2 LUT      0.082505
    186 H383       83.2611   66.0039   32.6473 R1         2 LUT      0.104030
    187 H382       83.3368   67.3323   33.7976 R1         2 LUT      0.104030
    188 H381       84.2720   67.4127   32.2895 R1         2 LUT      0.104030
    189 H373       85.9287   63.0305   36.3180 T4         2 LUT      0.089537
    190 H372       87.5670   63.5395   37.0841 T4         2 LUT      0.089537
    191 H371       85.9104   64.2161   37.6082 T4         2 LUT      0.089537
    192 H363       88.7751   65.5663   36.0989 T4         2 LUT      0.089537
    193 H362       87.7284   66.7093   35.3218 T4         2 LUT      0.089537
    194 H361       87.3748   66.4240   37.0539 T4         2 LUT      0.089537
    195 H222       88.3090   63.7259   34.6298 U2         2 LUT      0.127376
    196 H221       86.6969   63.4468   34.0542 U2         2 LUT      0.127376
    197 H203       72.4290   60.4739   40.9931 R7         2 LUT      0.087068
    198 H202       72.1712   62.0851   40.2048 R7         2 LUT      0.087068
    199 H201       73.7201   61.2432   40.2313 R7         2 LUT      0.087068
    200 H193       67.9620   59.5177   44.9033 R4         2 LUT      0.089716
    201 H192       69.1911   59.3226   43.7318 R4         2 LUT      0.089716
    202 H191       69.4261   58.9005   45.4195 R4         2 LUT      0.089716
    203 H183       66.7117   63.0740   46.5139 R1         2 LUT      0.094572
    204 H182       65.3594   63.4847   47.3958 R1         2 LUT      0.094572
    205 H181       66.7238   64.4456   47.5970 R1         2 LUT      0.094572
    206 H173       68.8882   60.2807   51.5288 T4         2 LUT      0.093752
    207 H172       69.5026   61.3294   50.2395 T4         2 LUT      0.093752
    208 H171       68.1897   62.0407   51.2751 T4         2 LUT      0.093752
    209 H163       67.6433   58.3636   48.7988 T4         2 LUT      0.093752
    210 H162       69.2236   59.0537   49.1404 T4         2 LUT      0.093752
    211 H161       68.3708   58.3264   50.3367 T4         2 LUT      0.093752
    212 HO3        65.1746   61.4680   52.8987 Q1         2 LUT      0.300121
    213 H8         69.0524   62.6392   46.4966 U7         2 LUT      0.080784
    214 H7         67.8100   59.8885   47.0083 U6         2 LUT      0.042190
    215 H42        64.8076   63.1782   49.5405 U5         2 LUT      0.145166
    216 H41        66.1944   63.6196   50.5445 U5         2 LUT      0.145166
    217 H35        76.5826   64.5424   42.5475 T3         2 LUT      0.077919
    218 H34        77.6434   63.7218   39.7753 T2         2 LUT      0.073626
    219 H32        79.4623   64.5138   38.8727 T1         2 LUT      0.092510
    220 H31        81.1797   66.5200   40.4662 U9         2 LUT      0.070048
    221 H30        81.6057   64.7518   37.9645 U8         2 LUT      0.085442
    222 H3         64.3809   61.3448   50.6608 U3         2 LUT     -0.031596
    223 H28        82.9417   65.0354   36.4609 U7         2 LUT      0.084728
    224 H27        85.0692   67.2272   36.4209 U6         2 LUT      0.087291
    225 H26        84.5899   64.4415   34.9711 Q6         2 LUT      0.075325
    226 H24        86.3969   66.4344   31.9261 Q5         2 LUT      0.094482
    227 H23        88.3445   65.7517   33.6312 U3         2 LUT     -0.024869
    228 H22        65.7403   59.6870   49.9218 U2         2 LUT      0.127376
    229 H21        66.4168   59.7338   51.5070 U2         2 LUT      0.127376
    230 H15        75.4509   62.8145   40.3213 T3         2 LUT      0.093200
    231 H14        74.4065   63.8108   43.0658 T2         2 LUT      0.068865
    232 H12        72.4648   63.0859   43.8364 T1         2 LUT      0.095507
    233 H11        71.0706   60.7700   42.7953 U9         2 LUT      0.068930
    234 H10        70.6630   62.7491   45.0651 U8         2 LUT      0.083911
    235 H1         87.8706   64.5614   31.3130 Q1         2 LUT      0.297311
@<TRIPOS>BOND
    1     6     1 1
    2     7     2 1
    3     8     3 1
    4     9     4 1
    5    11     4 1
    6    12     6 1
    7    13     9 1
    8    16     9 1
    9    25     5 1
   10    25    16 1
   11    26    10 1
   12    26    17 1
   13    27    18 1
   14    28    14 1
   15    28    19 1
   16    29    12 1
   17    30    13 1
   18    31    24 1
   19    32     1 1
   20    32    25 1
   21    33    21 1
   22    33    26 1
   23    34    22 1
   24    34    27 1
   25    35    23 1
   26    35    28 1
   27    36    12 1
   28    36    24 1
   29    37    13 1
   30    37    15 1
   31    38    31 1
   32    39    20 1
   33    39    32 1
   34    40     2 1
   35    40    33 1
   36    41     3 1
   37    41    34 1
   38    42     4 1
   39    42    35 1
   40    43    38 1
   41    44     5 1
   42    44    17 1
   43    44    39 1
   44    45    10 1
   45    45    18 1
   46    45    40 1
   47    46    19 1
   48    46    41 1
   49    47    14 1
   50    47    16 1
   51    47    42 1
   52    48    38 1
   53    49    48 1
   54    50    49 1
   55    51    50 1
   56    52    51 1
   57    53    51 1
   58    54    53 1
   59    55    54 1
   60    56    55 1
   61    57    56 1
   62    58    56 1
   63    59    58 1
   64    60    59 1
   65    61    60 1
   66    62    61 1
   67    63    61 1
   68    64    27 1
   69    64    46 1
   70    65     5 1
   71    65    10 1
   72    65    64 1
   73    65    14 1
   74    66    23 1
   75    67    23 1
   76    68    23 1
   77    69    22 1
   78    70    22 1
   79    71    22 1
   80    72    21 1
   81    73    21 1
   82    74    21 1
   83    75    20 1
   84    76    20 1
   85    77    20 1
   86    78    15 1
   87    79    15 1
   88    80    15 1
   89    81     8 1
   90    82     8 1
   91    83     8 1
   92    84     7 1
   93    85     7 1
   94    86     6 1
   95    87     6 1
   96    88     3 1
   97    89     3 1
   98    90     1 1
   99    91     1 1
  100    92    63 1
  101    93    63 1
  102    94    63 1
  103    95    62 1
  104    96    62 1
  105    97    62 1
  106    98    60 1
  107    99    60 1
  108   100    59 1
  109   101    59 1
  110   102    58 1
  111   103    58 1
  112   104    57 1
  113   105    57 1
  114   106    57 1
  115   107    55 1
  116   108    55 1
  117   109    54 1
  118   110    54 1
  119   111    53 1
  120   112    53 1
  121   113    19 1
  122   114    18 1
  123   115    17 1
  124   116     9 1
  125   117     2 1
  126   118    52 1
  127   119    52 1
  128   120    52 1
  129   121    51 1
  130   122    50 1
  131   123    50 1
  132   124    49 1
  133   125    49 1
  134   126    48 1
  135   127    48 1
  136   128    43 1
  137   129    43 1
  138   130    43 1
  139   131    39 1
  140   132    32 1
  141   133    31 1
  142   134    61 1
  143   135    56 1
  144   136    24 1
  145   137    24 1
  146   139   138 1
  147   140   139 1
  148   141   140 1
  149   142   140 1
  150   143   142 1
  151   144   138 1
  152   144   143 1
  153   145   144 1
  154   146   145 1
  155   147   146 1
  156   148   147 1
  157   149   148 1
  158   150   149 1
  159   151   150 1
  160   152   151 1
  161   153   152 1
  162   154   138 1
  163   155   138 1
  164   156   143 1
  165   157   147 1
  166   158   151 1
  167   160   159 1
  168   161   160 1
  169   162   161 1
  170   163   161 1
  171   164   163 1
  172   165   159 1
  173   165   164 1
  174   166   165 1
  175   167   166 1
  176   168   167 1
  177   169   168 1
  178   170   169 1
  179   171   170 1
  180   172   171 1
  181   173   172 1
  182   174   153 1
  183   174   173 1
  184   175   159 1
  185   176   159 1
  186   177   164 1
  187   178   168 1
  188   179   172 1
  189   180   179 1
  190   181   179 1
  191   182   179 1
  192   183   178 1
  193   184   178 1
  194   185   178 1
  195   186   177 1
  196   187   177 1
  197   188   177 1
  198   189   176 1
  199   190   176 1
  200   191   176 1
  201   192   175 1
  202   193   175 1
  203   194   175 1
  204   195   160 1
  205   196   160 1
  206   197   158 1
  207   198   158 1
  208   199   158 1
  209   200   157 1
  210   201   157 1
  211   202   157 1
  212   203   156 1
  213   204   156 1
  214   205   156 1
  215   206   155 1
  216   207   155 1
  217   208   155 1
  218   209   154 1
  219   210   154 1
  220   211   154 1
  221   212   141 1
  222   213   146 1
  223   214   145 1
  224   215   142 1
  225   216   142 1
  226   217   174 1
  227   218   173 1
  228   219   171 1
  229   220   170 1
  230   221   169 1
  231   222   140 1
  232   223   167 1
  233   224   166 1
  234   225   165 1
  235   226   163 1
  236   227   161 1
  237   228   139 1
  238   229   139 1
  239   230   153 1
  240   231   152 1
  241   232   150 1
  242   233   149 1
  243   234   148 1
  244   235   162 1
  245   65    153 1
  246   65    174 1
@<TRIPOS>SUBSTRUCTURE
      1 CLA               1 ****               0 ****  **** 
      2 LUT             138 ****               0 ****  **** 
