@<TRIPOS>MOLECULE
Cpptraj generated mol2 file.
  235   246     2     0     0
SMALL
USER_CHARGES


@<TRIPOS>ATOM
      1 CAA        79.2693   59.1962   34.3125 a2         1 CLA     -0.055900
      2 CAB        79.2741   62.4768   43.5481 c8         1 CLA     -0.148500
      3 CAC        72.3921   58.5874   43.1420 a2         1 CLA     -0.012600
      4 CAD        74.9043   56.7593   35.4210 ck         1 CLA      0.398800
      5 NA         78.2349   59.3240   37.7085 ns         1 CLA     -0.225500
      6 CBA        80.5194   59.1939   33.4318 a2         1 CLA     -0.135000
      7 CBB        80.4197   62.6564   44.1785 c0         1 CLA     -0.395200
      8 CBC        72.6136   57.3523   43.9367 a3         1 CLA     -0.037700
      9 CBD        76.4213   57.2515   35.0538 a1         1 CLA     -0.053900
     10 NB         78.2409   60.6274   40.4980 nm         1 CLA     -0.295700
     11 OBD        74.1955   56.1236   34.6705 o2         1 CLA     -0.494600
     12 CGA        81.0344   57.8278   33.0357 c4         1 CLA      0.827000
     13 CGD        77.2782   56.0580   34.6482 c4         1 CLA      0.655300
     14 ND         75.4733   58.5537   38.4853 nm         1 CLA     -0.291600
     15 CED        78.5400   54.2297   35.4891 a3         1 CLA      0.005400
     16 CHA        76.9260   57.9735   36.3754 cs         1 CLA     -0.123800
     17 CHB        80.0137   60.5710   38.8283 aa         1 CLA     -0.291900
     18 CHC        76.9235   60.8306   42.5008 aa         1 CLA     -0.090400
     19 CHD        73.6328   58.2789   40.1313 aa         1 CLA     -0.052000
     20 CMA        81.6017   58.6167   37.0870 a3         1 CLA     -0.230700
     21 CMB        81.5468   62.3333   40.8510 a3         1 CLA     -0.180800
     22 CMC        74.7871   60.2126   44.7430 a3         1 CLA     -0.134000
     23 CMD        72.3269   56.5984   37.5833 a3         1 CLA     -0.141100
     24 C1         81.8808   55.7223   33.8874 a2         1 CLA      0.023000
     25 C1A        78.1296   58.6963   36.6036 ac         1 CLA     -0.015100
     26 C1B        79.5175   60.9511   40.0699 cr         1 CLA      0.054700
     27 C1C        75.7667   60.0250   42.2515 cn         1 CLA     -0.005600
     28 C1D        74.1955   58.0619   38.8471 ap         1 CLA     -0.047300
     29 O1A        81.1683   57.4189   31.8650 o2         1 CLA     -0.610800
     30 O1D        77.7335   55.8645   33.5593 o2         1 CLA     -0.558200
     31 C2         82.4253   55.0281   35.1164 c8         1 CLA     -0.325100
     32 C2A        79.4359   58.6194   35.7581 a1         1 CLA      0.098600
     33 C2B        80.1380   61.7564   41.1596 cb         1 CLA      0.088500
     34 C2C        74.7126   59.8089   43.2608 cb         1 CLA      0.053700
     35 C2D        73.6276   57.3234   37.6898 cb         1 CLA      0.058900
     36 O2A        81.3353   57.1103   34.1491 o1         1 CLA     -0.437200
     37 O2D        77.5336   55.2698   35.7300 o1         1 CLA     -0.357600
     38 C3         83.3693   54.0820   35.1143 c5         1 CLA      0.031200
     39 C3A        80.4074   59.4776   36.6016 a1         1 CLA      0.166800
     40 C3B        79.2291   61.8122   42.2167 cb         1 CLA      0.035000
     41 C3C        73.7508   59.0821   42.5533 cb         1 CLA     -0.089900
     42 C3D        74.6461   57.2714   36.7147 cb         1 CLA     -0.035900
     43 C4         83.0048   52.6366   35.0128 a3         1 CLA     -0.053300
     44 C4A        79.4903   59.8474   37.7895 ac         1 CLA      0.001800
     45 C4B        78.0486   61.0618   41.7694 cn         1 CLA     -0.020900
     46 C4C        74.2171   58.9346   41.1904 cr         1 CLA     -0.044400
     47 C4D        75.7880   57.9426   37.2245 c6         1 CLA     -0.046000
     48 C5         84.8446   54.4288   35.1640 a2         1 CLA     -0.070400
     49 C6         85.3358   55.8140   35.6887 a2         1 CLA      0.043900
     50 C7         85.2163   55.7519   37.2165 a2         1 CLA     -0.150000
     51 C8         85.4942   57.0215   37.9448 a1         1 CLA      0.064200
     52 C9         86.9266   57.5101   37.9248 a3         1 CLA     -0.259300
     53 C10        85.0819   56.9808   39.4276 a2         1 CLA     -0.071900
     54 C11        85.1078   58.2684   40.1862 a2         1 CLA      0.014500
     55 C12        84.9523   57.8247   41.7015 a2         1 CLA     -0.112100
     56 C13        85.1132   58.9638   42.7163 a1         1 CLA      0.089200
     57 C14        86.5274   59.6598   42.6324 a3         1 CLA     -0.239100
     58 C15        84.7018   58.6475   44.1725 a2         1 CLA     -0.102200
     59 C16        84.9125   59.5621   45.3796 a2         1 CLA      0.023900
     60 C17        84.5426   58.8748   46.7360 a2         1 CLA     -0.105700
     61 C18        84.8508   59.5156   48.1621 a1         1 CLA      0.206800
     62 C19        84.3757   60.9523   48.1530 a3         1 CLA     -0.280100
     63 C20        84.2226   58.6570   49.2265 a3         1 CLA     -0.280100
     64 NC         75.4706   59.4413   41.0692 nx         1 CLA     -0.309200
     65 MG         76.7667   59.6378   39.3767 mg         1 CLA      0.895000
     66 HMD3       72.4296   55.9691   38.4305 dc         1 CLA      0.064300
     67 HMD2       71.5619   57.3330   37.6335 dc         1 CLA      0.064300
     68 HMD1       72.2818   56.0816   36.6438 dc         1 CLA      0.064300
     69 HMC3       74.5683   61.2282   44.8191 dc         1 CLA      0.052100
     70 HMC2       74.0846   59.5990   45.3349 dc         1 CLA      0.052100
     71 HMC1       75.8012   60.0669   45.1740 dc         1 CLA      0.052100
     72 HMB3       81.5787   63.0944   40.0307 dc         1 CLA      0.063600
     73 HMB2       82.0066   62.5603   41.8175 dc         1 CLA      0.063600
     74 HMB1       82.1784   61.5807   40.4861 dc         1 CLA      0.063600
     75 HMA3       82.1901   59.2238   37.7772 dc         1 CLA      0.058300
     76 HMA2       81.2110   57.7277   37.5158 dc         1 CLA      0.058300
     77 HMA1       82.2974   58.3367   36.2808 dc         1 CLA      0.058300
     78 HED3       78.4367   53.4163   36.2584 dc         1 CLA      0.079300
     79 HED2       78.3303   53.7290   34.5183 dc         1 CLA      0.079300
     80 HED1       79.5560   54.5793   35.4334 dc         1 CLA      0.079300
     81 HBC3       71.6299   57.0680   44.3143 dc         1 CLA      0.016300
     82 HBC2       72.9467   56.6247   43.1353 dc         1 CLA      0.016300
     83 HBC1       73.3360   57.5293   44.7651 dc         1 CLA      0.016300
     84 HBB2       80.4272   63.1832   45.1864 da         1 CLA      0.183000
     85 HBB1       81.4110   62.3464   43.7912 da         1 CLA      0.183000
     86 HBA2       80.1926   59.7885   32.5591 dc         1 CLA      0.029400
     87 HBA1       81.3619   59.5619   33.9964 dc         1 CLA      0.029400
     88 HAC2       72.0719   59.3964   43.7666 dc         1 CLA      0.029300
     89 HAC1       71.6409   58.5646   42.3372 dc         1 CLA      0.029300
     90 HAA2       78.4675   58.6591   33.8540 dc         1 CLA      0.028700
     91 HAA1       78.9192   60.2218   34.5032 dc         1 CLA      0.028700
     92 H203       83.1300   58.6800   49.1428 dc         1 CLA      0.065600
     93 H202       84.5479   57.6221   49.0295 dc         1 CLA      0.065600
     94 H201       84.4813   58.8946   50.2362 dc         1 CLA      0.065600
     95 H193       84.6418   61.4232   49.1131 dc         1 CLA      0.065600
     96 H192       84.9290   61.5595   47.4529 dc         1 CLA      0.065600
     97 H191       83.3035   61.0178   47.9890 dc         1 CLA      0.065600
     98 H172       83.5158   58.7111   46.7405 dc         1 CLA      0.027600
     99 H171       84.9762   57.8799   46.7355 dc         1 CLA      0.027600
    100 H162       85.9776   59.7962   45.2950 dc         1 CLA      0.002900
    101 H161       84.4475   60.5431   45.2871 dc         1 CLA      0.002900
    102 H152       83.5920   58.4844   44.0825 dc         1 CLA      0.029100
    103 H151       85.2304   57.7239   44.4023 dc         1 CLA      0.029100
    104 H143       86.4799   60.6365   43.0438 dc         1 CLA      0.063600
    105 H142       87.0801   59.0210   43.3135 dc         1 CLA      0.063600
    106 H141       86.9577   59.6930   41.6416 dc         1 CLA      0.063600
    107 H122       84.1195   57.1646   41.9642 dc         1 CLA      0.032500
    108 H121       85.8422   57.1872   41.9439 dc         1 CLA      0.032500
    109 H112       85.9701   58.8201   40.0320 dc         1 CLA      0.006600
    110 H111       84.2849   58.8117   39.9063 dc         1 CLA      0.006600
    111 H102       84.1016   56.5216   39.4666 dc         1 CLA      0.024100
    112 H101       85.6719   56.1918   39.8998 dc         1 CLA      0.024100
    113 HHD        72.6507   58.0191   40.2950 da         1 CLA      0.174300
    114 HHC        76.9380   61.2389   43.4656 da         1 CLA      0.136800
    115 HHB        81.0330   60.8894   38.8108 da         1 CLA      0.138300
    116 HBD        76.3305   57.8914   34.1869 dc         1 CLA      0.107700
    117 HAB        78.3736   62.8777   44.0284 da         1 CLA      0.155200
    118 H93        87.4680   56.7179   38.3761 dc         1 CLA      0.069500
    119 H92        87.2355   57.5211   36.8570 dc         1 CLA      0.069500
    120 H91        87.3098   58.3989   38.5010 dc         1 CLA      0.069500
    121 H8         84.8366   57.7846   37.4738 dc         1 CLA      0.029300
    122 H72        84.2102   55.5215   37.4419 dc         1 CLA      0.044400
    123 H71        85.9256   55.0145   37.5610 dc         1 CLA      0.044400
    124 H62        86.3323   55.9676   35.3141 dc         1 CLA      0.015600
    125 H61        84.5903   56.5886   35.3062 dc         1 CLA      0.015600
    126 H52        85.4311   53.6095   35.5348 dc         1 CLA      0.033200
    127 H51        85.1033   54.4034   34.0812 dc         1 CLA      0.033200
    128 H43        83.3725   52.2449   34.0546 dc         1 CLA      0.037000
    129 H42        83.5797   52.2581   35.8551 dc         1 CLA      0.037000
    130 H41        81.9204   52.5260   35.1173 dc         1 CLA      0.037000
    131 H3A        80.7698   60.4090   36.0693 dc         1 CLA      0.041100
    132 H2A        79.7619   57.5660   35.8706 dc         1 CLA      0.083100
    133 H2         82.1814   55.4363   36.0679 da         1 CLA      0.180900
    134 H18        85.9068   59.6083   48.2917 dc         1 CLA     -0.003900
    135 H13        84.3760   59.7359   42.3766 dc         1 CLA      0.019700
    136 H12        81.1437   55.1121   33.3365 dc         1 CLA      0.120400
    137 H11        82.7314   55.7237   33.2053 dc         1 CLA      0.120400
    138 C1         69.1331   61.7819   50.5959 Z1         2 LUT      0.509236
    139 C2         67.6981   61.4893   51.0326 Z2         2 LUT     -0.434695
    140 C3         66.8009   62.6805   51.1420 Z3         2 LUT      0.437453
    141 O3         66.9889   63.0842   52.5128 S1         2 LUT     -0.547129
    142 C4         67.2233   63.9531   50.3351 Z4         2 LUT     -0.468603
    143 C5         68.1423   63.6081   49.2057 Z5         2 LUT      0.279246
    144 C6         69.0401   62.5297   49.2504 Z6         2 LUT     -0.305473
    145 C7         69.5722   61.8807   48.0179 Z7         2 LUT      0.069402
    146 C8         70.5746   62.4276   47.3079 Z8         2 LUT     -0.191631
    147 C9         71.0364   62.0555   45.9255 Z9         2 LUT      0.196698
    148 C10        72.0678   62.7702   45.3753 Y1         2 LUT     -0.208611
    149 C11        72.5751   62.7569   44.0671 Y2         2 LUT      0.030784
    150 C12        73.6290   63.5421   43.7494 Y3         2 LUT     -0.220316
    151 C13        74.3453   63.4939   42.4975 Y4         2 LUT      0.215937
    152 C14        75.5403   64.1497   42.4690 Y5         2 LUT     -0.185793
    153 C15        76.5116   64.2437   41.4331 Y6         2 LUT     -0.057835
    154 C16        69.8103   60.3872   50.4999 Y7         2 LUT     -0.405615
    155 C17        69.8834   62.4520   51.7603 Y7         2 LUT     -0.405615
    156 C18        67.8149   64.3530   47.9045 Y9         2 LUT     -0.369639
    157 C19        70.0742   61.1213   45.1169 W1         2 LUT     -0.333362
    158 C20        73.7598   63.0326   41.2313 W2         2 LUT     -0.323439
    159 C21        87.6418   66.1278   35.2627 Z1         2 LUT      0.406104
    160 C22        88.4076   65.5681   34.0531 Z2         2 LUT     -0.404965
    161 C23        88.5684   66.5576   32.9450 Z3         2 LUT      0.391255
    162 O23        89.2775   65.9429   31.8516 S1         2 LUT     -0.528210
    163 C24        87.2534   67.2080   32.5880 W6         2 LUT     -0.258361
    164 C25        86.2602   67.3933   33.4211 Z5         2 LUT      0.133546
    165 C26        86.1855   66.6118   34.7385 W8         2 LUT     -0.147008
    166 C27        85.4588   67.4225   35.7665 Z7         2 LUT      0.023843
    167 C28        84.3532   66.9612   36.4626 Z8         2 LUT     -0.216987
    168 C29        83.7082   67.2967   37.6615 Z9         2 LUT      0.206524
    169 C30        82.6318   66.5939   38.1035 Y1         2 LUT     -0.215556
    170 C31        81.9580   66.5837   39.3305 Y2         2 LUT      0.025142
    171 C32        80.7519   65.8244   39.4850 Y3         2 LUT     -0.212209
    172 C33        79.9058   65.6410   40.6185 Y4         2 LUT      0.240937
    173 C34        78.7425   64.9415   40.4800 Y5         2 LUT     -0.218862
    174 C35        77.7545   64.8229   41.5360 Y6         2 LUT     -0.023547
    175 C36        88.5559   67.4155   35.7874 Y7         2 LUT     -0.393485
    176 C37        87.7196   65.1088   36.4150 Y7         2 LUT     -0.393485
    177 C38        85.0108   68.1602   33.0182 Y9         2 LUT     -0.387526
    178 C39        84.3482   68.4393   38.3978 W1         2 LUT     -0.322618
    179 C40        80.3793   66.3076   41.9274 W2         2 LUT     -0.358472
    180 H403       81.1638   65.7422   42.4094 R7         2 LUT      0.097720
    181 H402       80.7869   67.3298   41.9416 R7         2 LUT      0.097720
    182 H401       79.6332   66.2881   42.6406 R7         2 LUT      0.097720
    183 H393       83.6515   68.8906   39.0356 R4         2 LUT      0.082505
    184 H392       85.0752   68.0590   39.1329 R4         2 LUT      0.082505
    185 H391       84.7290   69.2999   37.8096 R4         2 LUT      0.082505
    186 H383       84.1194   67.5745   32.9173 R1         2 LUT      0.104030
    187 H382       84.7930   68.9446   33.7576 R1         2 LUT      0.104030
    188 H381       85.0121   68.6441   32.0217 R1         2 LUT      0.104030
    189 H373       87.2326   64.1220   36.2851 T4         2 LUT      0.089537
    190 H372       88.7761   64.9179   36.7562 T4         2 LUT      0.089537
    191 H371       87.2162   65.5264   37.3000 T4         2 LUT      0.089537
    192 H363       89.5958   67.1157   35.9207 T4         2 LUT      0.089537
    193 H362       88.5117   68.3219   35.2516 T4         2 LUT      0.089537
    194 H361       88.1765   67.7100   36.7700 T4         2 LUT      0.089537
    195 H222       89.3326   65.3051   34.4178 U2         2 LUT      0.127376
    196 H221       87.7665   64.8100   33.6104 U2         2 LUT      0.127376
    197 H203       72.6941   62.6934   41.3499 R7         2 LUT      0.087068
    198 H202       73.7826   63.8418   40.5173 R7         2 LUT      0.087068
    199 H201       74.3408   62.1159   40.8864 R7         2 LUT      0.087068
    200 H193       70.3756   61.0485   44.0287 R4         2 LUT      0.089716
    201 H192       70.0385   60.0698   45.4990 R4         2 LUT      0.089716
    202 H191       68.9774   61.3910   45.0557 R4         2 LUT      0.089716
    203 H183       68.3935   65.2634   47.9751 R1         2 LUT      0.094572
    204 H182       68.0999   63.7150   47.0259 R1         2 LUT      0.094572
    205 H181       66.7296   64.5373   47.6808 R1         2 LUT      0.094572
    206 H173       70.9303   62.5337   51.6272 T4         2 LUT      0.093752
    207 H172       69.4132   63.4500   51.9569 T4         2 LUT      0.093752
    208 H171       69.7518   61.8932   52.7453 T4         2 LUT      0.093752
    209 H163       69.3562   59.7071   49.7843 T4         2 LUT      0.093752
    210 H162       70.8824   60.4291   50.2386 T4         2 LUT      0.093752
    211 H161       69.6350   59.9550   51.4888 T4         2 LUT      0.093752
    212 HO3        66.2278   62.8822   53.1281 Q1         2 LUT      0.300121
    213 H8         71.0073   63.2778   47.7359 U7         2 LUT      0.080784
    214 H7         69.0111   61.0155   47.6951 U6         2 LUT      0.042190
    215 H42        66.2657   64.4624   50.0293 U5         2 LUT      0.145166
    216 H41        67.7416   64.7044   50.8712 U5         2 LUT      0.145166
    217 H35        77.9531   65.0075   42.5341 T3         2 LUT      0.077919
    218 H34        78.5457   64.5266   39.4661 T2         2 LUT      0.073626
    219 H32        80.3832   65.2861   38.6120 T1         2 LUT      0.092510
    220 H31        82.3663   67.1738   40.1671 U9         2 LUT      0.070048
    221 H30        82.2833   65.8599   37.4186 U8         2 LUT      0.085442
    222 H3         65.8271   62.3232   50.7893 U3         2 LUT     -0.031596
    223 H28        83.8808   66.1212   36.0247 U7         2 LUT      0.084728
    224 H27        86.0688   68.2006   36.1375 U6         2 LUT      0.087291
    225 H26        85.4877   65.8089   34.4124 Q6         2 LUT      0.075325
    226 H24        87.1252   67.5851   31.6239 Q5         2 LUT      0.094482
    227 H23        89.2157   67.3576   33.3968 U3         2 LUT     -0.024869
    228 H22        67.2042   60.8560   50.2490 U2         2 LUT      0.127376
    229 H21        67.6709   60.8563   51.9172 U2         2 LUT      0.127376
    230 H15        76.1948   63.8893   40.4701 T3         2 LUT      0.093200
    231 H14        75.8219   64.6951   43.4256 T2         2 LUT      0.068865
    232 H12        74.0522   64.1806   44.5382 T1         2 LUT      0.095507
    233 H11        72.2646   62.0142   43.2486 U9         2 LUT      0.068930
    234 H10        72.5517   63.4623   45.9937 U8         2 LUT      0.083911
    235 H1         88.7029   65.6055   31.1722 Q1         2 LUT      0.297311
@<TRIPOS>BOND
    1     6     1 1
    2     7     2 1
    3     8     3 1
    4     9     4 1
    5    11     4 1
    6    12     6 1
    7    13     9 1
    8    16     9 1
    9    25     5 1
   10    25    16 1
   11    26    10 1
   12    26    17 1
   13    27    18 1
   14    28    14 1
   15    28    19 1
   16    29    12 1
   17    30    13 1
   18    31    24 1
   19    32     1 1
   20    32    25 1
   21    33    21 1
   22    33    26 1
   23    34    22 1
   24    34    27 1
   25    35    23 1
   26    35    28 1
   27    36    12 1
   28    36    24 1
   29    37    13 1
   30    37    15 1
   31    38    31 1
   32    39    20 1
   33    39    32 1
   34    40     2 1
   35    40    33 1
   36    41     3 1
   37    41    34 1
   38    42     4 1
   39    42    35 1
   40    43    38 1
   41    44     5 1
   42    44    17 1
   43    44    39 1
   44    45    10 1
   45    45    18 1
   46    45    40 1
   47    46    19 1
   48    46    41 1
   49    47    14 1
   50    47    16 1
   51    47    42 1
   52    48    38 1
   53    49    48 1
   54    50    49 1
   55    51    50 1
   56    52    51 1
   57    53    51 1
   58    54    53 1
   59    55    54 1
   60    56    55 1
   61    57    56 1
   62    58    56 1
   63    59    58 1
   64    60    59 1
   65    61    60 1
   66    62    61 1
   67    63    61 1
   68    64    27 1
   69    64    46 1
   70    65     5 1
   71    65    10 1
   72    65    64 1
   73    65    14 1
   74    66    23 1
   75    67    23 1
   76    68    23 1
   77    69    22 1
   78    70    22 1
   79    71    22 1
   80    72    21 1
   81    73    21 1
   82    74    21 1
   83    75    20 1
   84    76    20 1
   85    77    20 1
   86    78    15 1
   87    79    15 1
   88    80    15 1
   89    81     8 1
   90    82     8 1
   91    83     8 1
   92    84     7 1
   93    85     7 1
   94    86     6 1
   95    87     6 1
   96    88     3 1
   97    89     3 1
   98    90     1 1
   99    91     1 1
  100    92    63 1
  101    93    63 1
  102    94    63 1
  103    95    62 1
  104    96    62 1
  105    97    62 1
  106    98    60 1
  107    99    60 1
  108   100    59 1
  109   101    59 1
  110   102    58 1
  111   103    58 1
  112   104    57 1
  113   105    57 1
  114   106    57 1
  115   107    55 1
  116   108    55 1
  117   109    54 1
  118   110    54 1
  119   111    53 1
  120   112    53 1
  121   113    19 1
  122   114    18 1
  123   115    17 1
  124   116     9 1
  125   117     2 1
  126   118    52 1
  127   119    52 1
  128   120    52 1
  129   121    51 1
  130   122    50 1
  131   123    50 1
  132   124    49 1
  133   125    49 1
  134   126    48 1
  135   127    48 1
  136   128    43 1
  137   129    43 1
  138   130    43 1
  139   131    39 1
  140   132    32 1
  141   133    31 1
  142   134    61 1
  143   135    56 1
  144   136    24 1
  145   137    24 1
  146   139   138 1
  147   140   139 1
  148   141   140 1
  149   142   140 1
  150   143   142 1
  151   144   138 1
  152   144   143 1
  153   145   144 1
  154   146   145 1
  155   147   146 1
  156   148   147 1
  157   149   148 1
  158   150   149 1
  159   151   150 1
  160   152   151 1
  161   153   152 1
  162   154   138 1
  163   155   138 1
  164   156   143 1
  165   157   147 1
  166   158   151 1
  167   160   159 1
  168   161   160 1
  169   162   161 1
  170   163   161 1
  171   164   163 1
  172   165   159 1
  173   165   164 1
  174   166   165 1
  175   167   166 1
  176   168   167 1
  177   169   168 1
  178   170   169 1
  179   171   170 1
  180   172   171 1
  181   173   172 1
  182   174   153 1
  183   174   173 1
  184   175   159 1
  185   176   159 1
  186   177   164 1
  187   178   168 1
  188   179   172 1
  189   180   179 1
  190   181   179 1
  191   182   179 1
  192   183   178 1
  193   184   178 1
  194   185   178 1
  195   186   177 1
  196   187   177 1
  197   188   177 1
  198   189   176 1
  199   190   176 1
  200   191   176 1
  201   192   175 1
  202   193   175 1
  203   194   175 1
  204   195   160 1
  205   196   160 1
  206   197   158 1
  207   198   158 1
  208   199   158 1
  209   200   157 1
  210   201   157 1
  211   202   157 1
  212   203   156 1
  213   204   156 1
  214   205   156 1
  215   206   155 1
  216   207   155 1
  217   208   155 1
  218   209   154 1
  219   210   154 1
  220   211   154 1
  221   212   141 1
  222   213   146 1
  223   214   145 1
  224   215   142 1
  225   216   142 1
  226   217   174 1
  227   218   173 1
  228   219   171 1
  229   220   170 1
  230   221   169 1
  231   222   140 1
  232   223   167 1
  233   224   166 1
  234   225   165 1
  235   226   163 1
  236   227   161 1
  237   228   139 1
  238   229   139 1
  239   230   153 1
  240   231   152 1
  241   232   150 1
  242   233   149 1
  243   234   148 1
  244   235   162 1
  245   65    153 1
  246   65    174 1
@<TRIPOS>SUBSTRUCTURE
      1 CLA               1 ****               0 ****  **** 
      2 LUT             138 ****               0 ****  **** 
