@<TRIPOS>MOLECULE
Cpptraj generated mol2 file.
  235   246     2     0     0
SMALL
USER_CHARGES


@<TRIPOS>ATOM
      1 CAA        77.8769   58.1708   34.5724 a2         1 CLA     -0.055900
      2 CAB        77.3309   62.3207   43.4308 c8         1 CLA     -0.148500
      3 CAC        70.7796   57.6043   42.8174 a2         1 CLA     -0.012600
      4 CAD        74.0854   55.1152   35.8823 ck         1 CLA      0.398800
      5 NA         76.7421   58.6399   37.8681 ns         1 CLA     -0.225500
      6 CBA        79.1716   58.1648   33.7143 a2         1 CLA     -0.135000
      7 CBB        76.3357   62.7793   44.2046 c0         1 CLA     -0.395200
      8 CBC        71.0634   56.2707   43.4725 a3         1 CLA     -0.037700
      9 CBD        75.4777   55.7690   35.5468 a1         1 CLA     -0.053900
     10 NB         76.2711   60.2702   40.4536 nm         1 CLA     -0.295700
     11 OBD        73.5430   54.2066   35.2803 o2         1 CLA     -0.494600
     12 CGA        79.5874   56.7274   33.4043 c4         1 CLA      0.827000
     13 CGD        76.5685   54.7761   35.5463 c4         1 CLA      0.655300
     14 ND         74.0258   57.5924   38.4137 nm         1 CLA     -0.291600
     15 CED        77.2788   52.8346   36.6073 a3         1 CLA      0.005400
     16 CHA        75.6807   56.8338   36.6584 cs         1 CLA     -0.123800
     17 CHB        78.3523   60.1203   38.9943 aa         1 CLA     -0.291900
     18 CHC        74.9893   60.3857   42.5509 aa         1 CLA     -0.090400
     19 CHD        72.1378   57.4605   39.9725 aa         1 CLA     -0.052000
     20 CMA        80.3044   58.5154   37.2578 a3         1 CLA     -0.230700
     21 CMB        79.4556   62.0833   41.1241 a3         1 CLA     -0.180800
     22 CMC        72.5789   59.5425   44.5319 a3         1 CLA     -0.134000
     23 CMD        71.3261   55.0520   38.0752 a3         1 CLA     -0.141100
     24 C1         80.7360   54.7752   34.3806 a2         1 CLA      0.023000
     25 C1A        76.7616   57.7238   36.8502 ac         1 CLA     -0.015100
     26 C1B        77.5908   60.6146   40.1166 cr         1 CLA      0.054700
     27 C1C        73.9630   59.4960   42.2370 cn         1 CLA     -0.005600
     28 C1D        72.8245   57.0822   38.8078 ap         1 CLA     -0.047300
     29 O1A        79.2113   55.9858   32.5351 o2         1 CLA     -0.610800
     30 O1D        77.2216   54.5002   34.5676 o2         1 CLA     -0.558200
     31 C2         81.3772   54.4801   35.6884 c8         1 CLA     -0.325100
     32 C2A        78.0290   57.8978   36.0610 a1         1 CLA      0.098600
     33 C2B        78.1202   61.5149   41.1167 cb         1 CLA      0.088500
     34 C2C        72.8511   59.1920   43.0923 cb         1 CLA      0.053700
     35 C2D        72.5335   55.9819   37.9687 cb         1 CLA      0.058900
     36 O2A        80.3115   56.1696   34.4030 o1         1 CLA     -0.437200
     37 O2D        76.6873   54.1647   36.7480 o1         1 CLA     -0.357600
     38 C3         82.1973   53.4428   35.9174 c5         1 CLA      0.031200
     39 C3A        78.8752   58.9313   36.8099 a1         1 CLA      0.166800
     40 C3B        77.2116   61.5739   42.1491 cb         1 CLA      0.035000
     41 C3C        71.9956   58.3400   42.3664 cb         1 CLA     -0.089900
     42 C3D        73.6102   55.8570   37.0229 cb         1 CLA     -0.035900
     43 C4         81.6970   52.2405   36.5890 a3         1 CLA     -0.053300
     44 C4A        77.9774   59.2392   37.9491 ac         1 CLA      0.001800
     45 C4B        76.0580   60.8072   41.7462 cn         1 CLA     -0.020900
     46 C4C        72.6540   58.2279   41.0375 cr         1 CLA     -0.044400
     47 C4D        74.5461   56.8250   37.4092 c6         1 CLA     -0.046000
     48 C5         83.6860   53.4013   35.6658 a2         1 CLA     -0.070400
     49 C6         84.5329   54.7267   35.8728 a2         1 CLA      0.043900
     50 C7         84.8278   55.0662   37.2863 a2         1 CLA     -0.150000
     51 C8         85.3614   56.5085   37.5735 a1         1 CLA      0.064200
     52 C9         86.8160   56.7515   36.9591 a3         1 CLA     -0.259300
     53 C10        85.4630   56.7740   39.0293 a2         1 CLA     -0.071900
     54 C11        84.0221   57.0456   39.6745 a2         1 CLA      0.014500
     55 C12        84.0233   58.0365   40.9524 a2         1 CLA     -0.112100
     56 C13        84.7871   57.5493   42.2199 a1         1 CLA      0.089200
     57 C14        84.2034   56.2164   42.7811 a3         1 CLA     -0.239100
     58 C15        84.8184   58.6719   43.2990 a2         1 CLA     -0.102200
     59 C16        83.4447   59.1919   43.8971 a2         1 CLA      0.023900
     60 C17        83.6955   60.2148   45.0429 a2         1 CLA     -0.105700
     61 C18        82.5182   60.7929   45.9101 a1         1 CLA      0.206800
     62 C19        83.0402   61.7154   47.0470 a3         1 CLA     -0.280100
     63 C20        81.5677   61.5811   45.0449 a3         1 CLA     -0.280100
     64 NC         73.8061   58.9422   41.0042 nx         1 CLA     -0.309200
     65 MG         75.1087   59.0027   39.3099 mg         1 CLA      0.895000
     66 HMD3       71.6379   54.1464   37.5372 dc         1 CLA      0.064300
     67 HMD2       71.2052   54.6917   39.0658 dc         1 CLA      0.064300
     68 HMD1       70.4017   55.4291   37.6770 dc         1 CLA      0.064300
     69 HMC3       72.4539   58.6415   45.1430 dc         1 CLA      0.052100
     70 HMC2       73.4378   60.0146   44.9550 dc         1 CLA      0.052100
     71 HMC1       71.7983   60.2744   44.6595 dc         1 CLA      0.052100
     72 HMB3       80.2033   61.3470   41.3861 dc         1 CLA      0.063600
     73 HMB2       79.7781   62.4309   40.0881 dc         1 CLA      0.063600
     74 HMB1       79.4957   62.9545   41.8079 dc         1 CLA      0.063600
     75 HMA3       80.2849   57.7517   38.0806 dc         1 CLA      0.058300
     76 HMA2       80.7986   58.1359   36.3595 dc         1 CLA      0.058300
     77 HMA1       80.9430   59.2631   37.6830 dc         1 CLA      0.058300
     78 HED3       78.3455   52.9418   36.3036 dc         1 CLA      0.079300
     79 HED2       77.1126   52.3370   37.6245 dc         1 CLA      0.079300
     80 HED1       76.7554   52.2669   35.8853 dc         1 CLA      0.079300
     81 HBC3       72.1283   55.9680   43.5237 dc         1 CLA      0.016300
     82 HBC2       70.7147   56.1674   44.5212 dc         1 CLA      0.016300
     83 HBC1       70.5219   55.5279   42.8858 dc         1 CLA      0.016300
     84 HBB2       76.6301   63.2353   45.2000 da         1 CLA      0.183000
     85 HBB1       75.2561   62.5564   44.0111 da         1 CLA      0.183000
     86 HBA2       78.8884   58.7056   32.7917 dc         1 CLA      0.029400
     87 HBA1       80.0917   58.5565   34.1932 dc         1 CLA      0.029400
     88 HAC2       70.3162   58.1143   43.6667 dc         1 CLA      0.029300
     89 HAC1       70.0737   57.5676   42.0025 dc         1 CLA      0.029300
     90 HAA2       77.1958   57.4467   34.1718 dc         1 CLA      0.028700
     91 HAA1       77.3780   59.1446   34.5050 dc         1 CLA      0.028700
     92 H203       81.8465   62.5102   44.4975 dc         1 CLA      0.065600
     93 H202       81.1338   60.8933   44.3511 dc         1 CLA      0.065600
     94 H201       80.8043   61.8682   45.7329 dc         1 CLA      0.065600
     95 H193       83.6467   62.4977   46.5578 dc         1 CLA      0.065600
     96 H192       82.1669   62.2315   47.5706 dc         1 CLA      0.065600
     97 H191       83.5677   61.2326   47.8224 dc         1 CLA      0.065600
     98 H172       84.2814   59.7608   45.8741 dc         1 CLA      0.027600
     99 H171       84.3106   61.0693   44.6192 dc         1 CLA      0.027600
    100 H162       82.7559   59.6809   43.1488 dc         1 CLA      0.002900
    101 H161       82.8855   58.2755   44.1970 dc         1 CLA      0.002900
    102 H152       85.3124   58.1688   44.1537 dc         1 CLA      0.029100
    103 H151       85.4717   59.4601   42.9174 dc         1 CLA      0.029100
    104 H143       84.6247   55.8670   43.7773 dc         1 CLA      0.063600
    105 H142       83.1107   56.2088   42.8273 dc         1 CLA      0.063600
    106 H141       84.6128   55.5287   42.0271 dc         1 CLA      0.063600
    107 H122       84.4402   59.0093   40.7662 dc         1 CLA      0.032500
    108 H121       82.9810   58.2084   41.1700 dc         1 CLA      0.032500
    109 H112       83.4270   57.5151   38.9155 dc         1 CLA      0.006600
    110 H111       83.5557   56.0560   39.8801 dc         1 CLA      0.006600
    111 H102       85.9167   55.9001   39.5648 dc         1 CLA      0.024100
    112 H101       86.0441   57.6729   39.1505 dc         1 CLA      0.024100
    113 HHD        71.1847   56.9585   40.1053 da         1 CLA      0.174300
    114 HHC        74.9443   60.7447   43.5277 da         1 CLA      0.136800
    115 HHB        79.3616   60.5439   38.8883 da         1 CLA      0.138300
    116 HBD        75.4763   56.1841   34.5064 dc         1 CLA      0.107700
    117 HAB        78.3638   62.5133   43.6672 da         1 CLA      0.155200
    118 H93        87.5967   56.1927   37.3223 dc         1 CLA      0.069500
    119 H92        86.7455   56.6061   35.9164 dc         1 CLA      0.069500
    120 H91        87.3037   57.7042   36.9863 dc         1 CLA      0.069500
    121 H8         84.7746   57.3404   37.1120 dc         1 CLA      0.029300
    122 H72        83.9876   54.8763   37.9676 dc         1 CLA      0.044400
    123 H71        85.6619   54.4693   37.6564 dc         1 CLA      0.044400
    124 H62        85.5258   54.5520   35.4067 dc         1 CLA      0.015600
    125 H61        84.0359   55.5071   35.2978 dc         1 CLA      0.015600
    126 H52        84.2499   52.5690   36.1312 dc         1 CLA      0.033200
    127 H51        83.7726   53.2699   34.6119 dc         1 CLA      0.033200
    128 H43        80.6689   52.3394   36.6928 dc         1 CLA      0.037000
    129 H42        81.9651   51.2955   36.0506 dc         1 CLA      0.037000
    130 H41        82.1272   52.2009   37.6071 dc         1 CLA      0.037000
    131 H3A        78.9395   59.7597   36.1936 dc         1 CLA      0.041100
    132 H2A        78.4940   56.9310   36.2152 dc         1 CLA      0.083100
    133 H2         81.2238   55.2147   36.4499 da         1 CLA      0.180900
    134 H18        81.8619   60.0881   46.4341 dc         1 CLA     -0.003900
    135 H13        85.8131   57.3007   41.9375 dc         1 CLA      0.019700
    136 H12        79.8353   54.1952   34.2392 dc         1 CLA      0.120400
    137 H11        81.4622   54.7180   33.5418 dc         1 CLA      0.120400
    138 C1         67.7068   61.2249   50.0487 Z1         2 LUT      0.509236
    139 C2         66.4747   61.1219   51.0427 Z2         2 LUT     -0.434695
    140 C3         65.6679   62.4027   51.2461 Z3         2 LUT      0.437453
    141 O3         66.0702   63.0412   52.4511 S1         2 LUT     -0.547129
    142 C4         65.9310   63.4600   50.1955 Z4         2 LUT     -0.468603
    143 C5         66.5081   62.9711   48.8644 Z5         2 LUT      0.279246
    144 C6         67.3721   61.9927   48.7442 Z6         2 LUT     -0.305473
    145 C7         67.8130   61.4263   47.4990 Z7         2 LUT      0.069402
    146 C8         68.4688   62.0838   46.5486 Z8         2 LUT     -0.191631
    147 C9         69.0568   61.7174   45.2690 Z9         2 LUT      0.196698
    148 C10        70.0223   62.5354   44.6961 Y1         2 LUT     -0.208611
    149 C11        70.6580   62.5858   43.3987 Y2         2 LUT      0.030784
    150 C12        71.8192   63.1317   42.9855 Y3         2 LUT     -0.220316
    151 C13        72.5528   63.1277   41.7176 Y4         2 LUT      0.215937
    152 C14        73.7860   63.6859   41.6731 Y5         2 LUT     -0.185793
    153 C15        74.8026   63.7626   40.7006 Y6         2 LUT     -0.057835
    154 C16        68.4210   59.7968   49.8847 Y7         2 LUT     -0.405615
    155 C17        68.7954   61.9807   50.8643 Y7         2 LUT     -0.405615
    156 C18        65.8377   63.7790   47.7440 Y9         2 LUT     -0.369639
    157 C19        68.4990   60.5192   44.5972 W1         2 LUT     -0.333362
    158 C20        71.8321   62.3864   40.6506 W2         2 LUT     -0.323439
    159 C21        86.8378   65.4804   35.1691 Z1         2 LUT      0.406104
    160 C22        87.4589   64.7275   33.9722 Z2         2 LUT     -0.404965
    161 C23        87.4750   65.5224   32.6932 Z3         2 LUT      0.391255
    162 O23        87.9053   64.4986   31.7466 S1         2 LUT     -0.528210
    163 C24        86.1001   66.1702   32.5489 W6         2 LUT     -0.258361
    164 C25        85.1558   66.4055   33.4634 Z5         2 LUT      0.133546
    165 C26        85.3805   65.8312   34.8789 W8         2 LUT     -0.147008
    166 C27        84.5152   66.3653   36.0303 Z7         2 LUT      0.023843
    167 C28        83.5568   65.6720   36.6833 Z8         2 LUT     -0.216987
    168 C29        82.6332   66.2143   37.7276 Z9         2 LUT      0.206524
    169 C30        81.5868   65.5372   38.2171 Y1         2 LUT     -0.215556
    170 C31        80.4531   65.9093   39.0596 Y2         2 LUT      0.025142
    171 C32        79.2104   65.3095   39.1519 Y3         2 LUT     -0.212209
    172 C33        78.1311   65.4456   40.1371 Y4         2 LUT      0.240937
    173 C34        77.1445   64.4786   40.1251 Y5         2 LUT     -0.218862
    174 C35        75.9968   64.3841   41.0005 Y6         2 LUT     -0.023547
    175 C36        87.7340   66.6132   35.6779 Y7         2 LUT     -0.393485
    176 C37        86.7346   64.3081   36.2061 Y7         2 LUT     -0.393485
    177 C38        83.9478   67.2370   33.1362 Y9         2 LUT     -0.387526
    178 C39        82.9227   67.5830   38.3282 W1         2 LUT     -0.322618
    179 C40        78.5368   66.1987   41.4147 W2         2 LUT     -0.358472
    180 H403       79.0553   65.3954   41.9928 R7         2 LUT      0.097720
    181 H402       79.2035   67.0431   41.2049 R7         2 LUT      0.097720
    182 H401       77.6371   66.5433   41.8802 R7         2 LUT      0.097720
    183 H393       83.9817   67.8918   38.2807 R4         2 LUT      0.082505
    184 H392       82.3593   68.4115   37.7809 R4         2 LUT      0.082505
    185 H391       82.4223   67.6401   39.3003 R4         2 LUT      0.082505
    186 H383       84.2597   68.1900   32.7154 R1         2 LUT      0.104030
    187 H382       83.3187   66.6875   32.3411 R1         2 LUT      0.104030
    188 H381       83.2562   67.2990   33.8917 R1         2 LUT      0.104030
    189 H373       87.6888   63.8631   36.5077 T4         2 LUT      0.089537
    190 H372       86.2659   64.5657   37.0967 T4         2 LUT      0.089537
    191 H371       86.0601   63.4991   35.8467 T4         2 LUT      0.089537
    192 H363       88.7694   66.2546   35.9578 T4         2 LUT      0.089537
    193 H362       87.8769   67.3642   34.9075 T4         2 LUT      0.089537
    194 H361       87.4163   67.0135   36.6303 T4         2 LUT      0.089537
    195 H222       88.4436   64.3312   34.1584 U2         2 LUT      0.127376
    196 H221       86.8457   63.8875   33.7420 U2         2 LUT      0.127376
    197 H203       72.5447   62.0620   39.8412 R7         2 LUT      0.087068
    198 H202       71.5552   61.3843   40.9951 R7         2 LUT      0.087068
    199 H201       71.0353   62.9427   40.1012 R7         2 LUT      0.087068
    200 H193       67.4730   60.6618   44.3349 R4         2 LUT      0.089716
    201 H192       69.0456   60.2103   43.6743 R4         2 LUT      0.089716
    202 H191       68.6929   59.6440   45.2401 R4         2 LUT      0.089716
    203 H183       64.8060   63.8002   47.8411 R1         2 LUT      0.094572
    204 H182       66.1534   64.8445   47.7452 R1         2 LUT      0.094572
    205 H181       66.0874   63.3966   46.7772 R1         2 LUT      0.094572
    206 H173       68.4185   63.0264   50.8953 T4         2 LUT      0.093752
    207 H172       69.0103   61.7667   51.9278 T4         2 LUT      0.093752
    208 H171       69.7682   62.0459   50.4158 T4         2 LUT      0.093752
    209 H163       68.8992   59.3950   50.8449 T4         2 LUT      0.093752
    210 H162       67.7822   59.1382   49.4211 T4         2 LUT      0.093752
    211 H161       69.2880   59.9726   49.2703 T4         2 LUT      0.093752
    212 HO3        65.6458   62.6021   53.1740 Q1         2 LUT      0.300121
    213 H8         68.6105   63.1225   46.8353 U7         2 LUT      0.080784
    214 H7         67.4806   60.3722   47.3312 U6         2 LUT      0.042190
    215 H42        64.9941   64.0657   50.0313 U5         2 LUT      0.145166
    216 H41        66.5644   64.2618   50.5689 U5         2 LUT      0.145166
    217 H35        76.1095   64.9027   42.0153 T3         2 LUT      0.077919
    218 H34        77.0494   63.7588   39.3001 T2         2 LUT      0.073626
    219 H32        79.1726   64.4313   38.5027 T1         2 LUT      0.092510
    220 H31        80.5623   66.7142   39.7675 U9         2 LUT      0.070048
    221 H30        81.4827   64.5312   37.7003 U8         2 LUT      0.085442
    222 H3         64.6086   62.2541   51.2007 U3         2 LUT     -0.031596
    223 H28        83.3945   64.6585   36.4071 U7         2 LUT      0.084728
    224 H27        84.6387   67.4314   36.0274 U6         2 LUT      0.087291
    225 H26        84.8374   64.9216   34.6565 Q6         2 LUT      0.075325
    226 H24        85.9777   66.8020   31.6781 Q5         2 LUT      0.094482
    227 H23        88.2288   66.3015   32.7825 U3         2 LUT     -0.024869
    228 H22        65.8019   60.4877   50.5135 U2         2 LUT      0.127376
    229 H21        66.8083   60.7979   52.0020 U2         2 LUT      0.127376
    230 H15        74.7133   63.2410   39.6904 T3         2 LUT      0.093200
    231 H14        74.1434   64.1502   42.5558 T2         2 LUT      0.068865
    232 H12        72.3120   63.5428   43.8673 T1         2 LUT      0.095507
    233 H11        70.2270   61.8859   42.7371 U9         2 LUT      0.068930
    234 H10        70.3854   63.2888   45.4257 U8         2 LUT      0.083911
    235 H1         87.9412   64.9466   30.8705 Q1         2 LUT      0.297311
@<TRIPOS>BOND
    1     6     1 1
    2     7     2 1
    3     8     3 1
    4     9     4 1
    5    11     4 1
    6    12     6 1
    7    13     9 1
    8    16     9 1
    9    25     5 1
   10    25    16 1
   11    26    10 1
   12    26    17 1
   13    27    18 1
   14    28    14 1
   15    28    19 1
   16    29    12 1
   17    30    13 1
   18    31    24 1
   19    32     1 1
   20    32    25 1
   21    33    21 1
   22    33    26 1
   23    34    22 1
   24    34    27 1
   25    35    23 1
   26    35    28 1
   27    36    12 1
   28    36    24 1
   29    37    13 1
   30    37    15 1
   31    38    31 1
   32    39    20 1
   33    39    32 1
   34    40     2 1
   35    40    33 1
   36    41     3 1
   37    41    34 1
   38    42     4 1
   39    42    35 1
   40    43    38 1
   41    44     5 1
   42    44    17 1
   43    44    39 1
   44    45    10 1
   45    45    18 1
   46    45    40 1
   47    46    19 1
   48    46    41 1
   49    47    14 1
   50    47    16 1
   51    47    42 1
   52    48    38 1
   53    49    48 1
   54    50    49 1
   55    51    50 1
   56    52    51 1
   57    53    51 1
   58    54    53 1
   59    55    54 1
   60    56    55 1
   61    57    56 1
   62    58    56 1
   63    59    58 1
   64    60    59 1
   65    61    60 1
   66    62    61 1
   67    63    61 1
   68    64    27 1
   69    64    46 1
   70    65     5 1
   71    65    10 1
   72    65    64 1
   73    65    14 1
   74    66    23 1
   75    67    23 1
   76    68    23 1
   77    69    22 1
   78    70    22 1
   79    71    22 1
   80    72    21 1
   81    73    21 1
   82    74    21 1
   83    75    20 1
   84    76    20 1
   85    77    20 1
   86    78    15 1
   87    79    15 1
   88    80    15 1
   89    81     8 1
   90    82     8 1
   91    83     8 1
   92    84     7 1
   93    85     7 1
   94    86     6 1
   95    87     6 1
   96    88     3 1
   97    89     3 1
   98    90     1 1
   99    91     1 1
  100    92    63 1
  101    93    63 1
  102    94    63 1
  103    95    62 1
  104    96    62 1
  105    97    62 1
  106    98    60 1
  107    99    60 1
  108   100    59 1
  109   101    59 1
  110   102    58 1
  111   103    58 1
  112   104    57 1
  113   105    57 1
  114   106    57 1
  115   107    55 1
  116   108    55 1
  117   109    54 1
  118   110    54 1
  119   111    53 1
  120   112    53 1
  121   113    19 1
  122   114    18 1
  123   115    17 1
  124   116     9 1
  125   117     2 1
  126   118    52 1
  127   119    52 1
  128   120    52 1
  129   121    51 1
  130   122    50 1
  131   123    50 1
  132   124    49 1
  133   125    49 1
  134   126    48 1
  135   127    48 1
  136   128    43 1
  137   129    43 1
  138   130    43 1
  139   131    39 1
  140   132    32 1
  141   133    31 1
  142   134    61 1
  143   135    56 1
  144   136    24 1
  145   137    24 1
  146   139   138 1
  147   140   139 1
  148   141   140 1
  149   142   140 1
  150   143   142 1
  151   144   138 1
  152   144   143 1
  153   145   144 1
  154   146   145 1
  155   147   146 1
  156   148   147 1
  157   149   148 1
  158   150   149 1
  159   151   150 1
  160   152   151 1
  161   153   152 1
  162   154   138 1
  163   155   138 1
  164   156   143 1
  165   157   147 1
  166   158   151 1
  167   160   159 1
  168   161   160 1
  169   162   161 1
  170   163   161 1
  171   164   163 1
  172   165   159 1
  173   165   164 1
  174   166   165 1
  175   167   166 1
  176   168   167 1
  177   169   168 1
  178   170   169 1
  179   171   170 1
  180   172   171 1
  181   173   172 1
  182   174   153 1
  183   174   173 1
  184   175   159 1
  185   176   159 1
  186   177   164 1
  187   178   168 1
  188   179   172 1
  189   180   179 1
  190   181   179 1
  191   182   179 1
  192   183   178 1
  193   184   178 1
  194   185   178 1
  195   186   177 1
  196   187   177 1
  197   188   177 1
  198   189   176 1
  199   190   176 1
  200   191   176 1
  201   192   175 1
  202   193   175 1
  203   194   175 1
  204   195   160 1
  205   196   160 1
  206   197   158 1
  207   198   158 1
  208   199   158 1
  209   200   157 1
  210   201   157 1
  211   202   157 1
  212   203   156 1
  213   204   156 1
  214   205   156 1
  215   206   155 1
  216   207   155 1
  217   208   155 1
  218   209   154 1
  219   210   154 1
  220   211   154 1
  221   212   141 1
  222   213   146 1
  223   214   145 1
  224   215   142 1
  225   216   142 1
  226   217   174 1
  227   218   173 1
  228   219   171 1
  229   220   170 1
  230   221   169 1
  231   222   140 1
  232   223   167 1
  233   224   166 1
  234   225   165 1
  235   226   163 1
  236   227   161 1
  237   228   139 1
  238   229   139 1
  239   230   153 1
  240   231   152 1
  241   232   150 1
  242   233   149 1
  243   234   148 1
  244   235   162 1
  245   65    153 1
  246   65    174 1
@<TRIPOS>SUBSTRUCTURE
      1 CLA               1 ****               0 ****  **** 
      2 LUT             138 ****               0 ****  **** 
