@<TRIPOS>MOLECULE
Cpptraj generated mol2 file.
  235   246     2     0     0
SMALL
USER_CHARGES


@<TRIPOS>ATOM
      1 CAA        79.3912   59.0651   33.7039 a2         1 CLA     -0.055900
      2 CAB        79.4633   62.3576   42.7741 c8         1 CLA     -0.148500
      3 CAC        72.3918   59.0333   41.6636 a2         1 CLA     -0.012600
      4 CAD        75.4017   56.1077   34.8071 ck         1 CLA      0.398800
      5 NA         78.5374   59.1677   37.0324 ns         1 CLA     -0.225500
      6 CBA        80.7147   58.8990   32.8749 a2         1 CLA     -0.135000
      7 CBB        80.4620   63.1896   43.1546 c0         1 CLA     -0.395200
      8 CBC        72.3867   57.5829   42.0562 a3         1 CLA     -0.037700
      9 CBD        76.8795   56.6667   34.4862 a1         1 CLA     -0.053900
     10 NB         78.4313   60.5928   39.7282 nm         1 CLA     -0.295700
     11 OBD        74.8588   55.2304   34.1532 o2         1 CLA     -0.494600
     12 CGA        81.1839   57.5187   32.4415 c4         1 CLA      0.827000
     13 CGD        77.8715   55.6018   34.3041 c4         1 CLA      0.655300
     14 ND         75.7019   58.3178   37.6057 nm         1 CLA     -0.291600
     15 CED        78.7811   53.7661   35.4715 a3         1 CLA      0.005400
     16 CHA        77.1751   57.7126   35.6218 cs         1 CLA     -0.123800
     17 CHB        80.3604   60.4981   38.0925 aa         1 CLA     -0.291900
     18 CHC        77.0583   60.8533   41.7019 aa         1 CLA     -0.090400
     19 CHD        73.6888   58.5782   38.9664 aa         1 CLA     -0.052000
     20 CMA        81.9030   58.4174   36.5033 a3         1 CLA     -0.230700
     21 CMB        81.8959   61.6564   40.6112 a3         1 CLA     -0.180800
     22 CMC        74.4648   60.6358   43.5179 a3         1 CLA     -0.134000
     23 CMD        72.4270   56.6103   36.6908 a3         1 CLA     -0.141100
     24 C1         82.5108   55.7228   33.0825 a2         1 CLA      0.023000
     25 C1A        78.3604   58.3683   35.8981 ac         1 CLA     -0.015100
     26 C1B        79.7457   60.7657   39.3720 cr         1 CLA      0.054700
     27 C1C        75.8637   60.2623   41.3191 cn         1 CLA     -0.005600
     28 C1D        74.3638   58.0041   37.8320 ap         1 CLA     -0.047300
     29 O1A        81.1720   57.0729   31.3460 o2         1 CLA     -0.610800
     30 O1D        78.7073   55.4821   33.4540 o2         1 CLA     -0.558200
     31 C2         82.9034   55.1782   34.4905 c8         1 CLA     -0.325100
     32 C2A        79.6577   58.3847   35.0896 a1         1 CLA      0.098600
     33 C2B        80.4100   61.3756   40.5139 cb         1 CLA      0.088500
     34 C2C        74.6235   60.1520   42.1082 cb         1 CLA      0.053700
     35 C2D        73.8329   57.1013   36.8310 cb         1 CLA      0.058900
     36 O2A        81.7769   56.8770   33.4689 o1         1 CLA     -0.437200
     37 O2D        77.7812   54.7945   35.3869 o1         1 CLA     -0.357600
     38 C3         83.8039   54.2188   34.8271 c5         1 CLA      0.031200
     39 C3A        80.7081   59.2687   35.9639 a1         1 CLA      0.166800
     40 C3B        79.4530   61.5845   41.4636 cb         1 CLA      0.035000
     41 C3C        73.7463   59.4684   41.2483 cb         1 CLA     -0.089900
     42 C3D        74.9363   56.9190   35.9537 cb         1 CLA     -0.035900
     43 C4         83.3942   52.8360   35.1680 a3         1 CLA     -0.053300
     44 C4A        79.8494   59.7278   37.0605 ac         1 CLA      0.001800
     45 C4B        78.2459   61.0388   40.9885 cn         1 CLA     -0.020900
     46 C4C        74.3222   59.2734   40.0224 cr         1 CLA     -0.044400
     47 C4D        76.0045   57.6960   36.4333 c6         1 CLA     -0.046000
     48 C5         85.3125   54.5172   34.8615 a2         1 CLA     -0.070400
     49 C6         85.7896   55.7570   35.5471 a2         1 CLA      0.043900
     50 C7         85.8724   55.6169   37.1491 a2         1 CLA     -0.150000
     51 C8         86.2568   56.8783   37.9982 a1         1 CLA      0.064200
     52 C9         87.5197   57.5604   37.4150 a3         1 CLA     -0.259300
     53 C10        86.4046   56.5575   39.4962 a2         1 CLA     -0.071900
     54 C11        86.3684   57.7439   40.4996 a2         1 CLA      0.014500
     55 C12        86.3571   57.3802   41.9568 a2         1 CLA     -0.112100
     56 C13        86.2565   58.6884   42.8548 a1         1 CLA      0.089200
     57 C14        87.6429   59.4604   43.0515 a3         1 CLA     -0.239100
     58 C15        85.5465   58.4549   44.1752 a2         1 CLA     -0.102200
     59 C16        85.4413   59.5755   45.1702 a2         1 CLA      0.023900
     60 C17        85.0011   58.9327   46.5071 a2         1 CLA     -0.105700
     61 C18        84.6386   59.8858   47.6392 a1         1 CLA      0.206800
     62 C19        83.4614   60.8413   47.2640 a3         1 CLA     -0.280100
     63 C20        84.5503   59.1031   49.0092 a3         1 CLA     -0.280100
     64 NC         75.5887   59.7405   40.0500 nx         1 CLA     -0.309200
     65 MG         76.9825   59.6104   38.4868 mg         1 CLA      0.895000
     66 HMD3       72.1449   55.9508   37.5311 dc         1 CLA      0.064300
     67 HMD2       71.7262   57.3973   36.4713 dc         1 CLA      0.064300
     68 HMD1       72.4549   55.9024   35.8868 dc         1 CLA      0.064300
     69 HMC3       74.7924   59.7740   44.1373 dc         1 CLA      0.052100
     70 HMC2       75.1066   61.5662   43.6786 dc         1 CLA      0.052100
     71 HMC1       73.4386   60.8042   43.7560 dc         1 CLA      0.052100
     72 HMB3       82.4178   61.3681   41.5293 dc         1 CLA      0.063600
     73 HMB2       82.5663   61.2329   39.7750 dc         1 CLA      0.063600
     74 HMB1       82.0079   62.7230   40.3252 dc         1 CLA      0.063600
     75 HMA3       81.5935   57.4050   36.7836 dc         1 CLA      0.058300
     76 HMA2       82.6008   58.2261   35.6941 dc         1 CLA      0.058300
     77 HMA1       82.3955   58.8657   37.3409 dc         1 CLA      0.058300
     78 HED3       79.6767   54.2087   35.5728 dc         1 CLA      0.079300
     79 HED2       78.5285   53.1460   36.3279 dc         1 CLA      0.079300
     80 HED1       78.7144   53.1740   34.5591 dc         1 CLA      0.079300
     81 HBC3       71.5345   57.3302   42.4908 dc         1 CLA      0.016300
     82 HBC2       72.6987   56.9509   41.1984 dc         1 CLA      0.016300
     83 HBC1       73.0946   57.4926   42.9420 dc         1 CLA      0.016300
     84 HBB2       80.4189   63.8169   44.0192 da         1 CLA      0.183000
     85 HBB1       81.3067   63.3136   42.5217 da         1 CLA      0.183000
     86 HBA2       80.4342   59.5620   32.0823 dc         1 CLA      0.029400
     87 HBA1       81.5468   59.3239   33.3743 dc         1 CLA      0.029400
     88 HAC2       72.0959   59.4835   42.5996 dc         1 CLA      0.029300
     89 HAC1       71.5688   59.3523   40.9730 dc         1 CLA      0.029300
     90 HAA2       78.5953   58.5671   33.2182 dc         1 CLA      0.028700
     91 HAA1       79.0645   60.1087   33.8547 dc         1 CLA      0.028700
     92 H203       85.5561   58.8444   49.3148 dc         1 CLA      0.065600
     93 H202       84.1316   59.7228   49.7396 dc         1 CLA      0.065600
     94 H201       83.8691   58.1439   48.9300 dc         1 CLA      0.065600
     95 H193       83.4975   61.2245   46.2445 dc         1 CLA      0.065600
     96 H192       82.4342   60.3761   47.4494 dc         1 CLA      0.065600
     97 H191       83.5758   61.7276   47.9491 dc         1 CLA      0.065600
     98 H172       84.0232   58.4298   46.2324 dc         1 CLA      0.027600
     99 H171       85.6853   58.2557   46.9650 dc         1 CLA      0.027600
    100 H162       86.4542   60.0118   45.3784 dc         1 CLA      0.002900
    101 H161       84.7873   60.3524   44.9651 dc         1 CLA      0.002900
    102 H152       84.4719   58.1650   43.9459 dc         1 CLA      0.029100
    103 H151       86.0655   57.6375   44.6138 dc         1 CLA      0.029100
    104 H143       88.1350   59.0433   43.9328 dc         1 CLA      0.063600
    105 H142       88.2202   59.3610   42.0907 dc         1 CLA      0.063600
    106 H141       87.4082   60.5573   43.2316 dc         1 CLA      0.063600
    107 H122       85.5135   56.7165   42.0936 dc         1 CLA      0.032500
    108 H121       87.3317   56.8847   42.0246 dc         1 CLA      0.032500
    109 H112       87.3599   58.2215   40.3463 dc         1 CLA      0.006600
    110 H111       85.5200   58.3924   40.2201 dc         1 CLA      0.006600
    111 H102       85.6458   55.8263   39.8134 dc         1 CLA      0.024100
    112 H101       87.4090   56.0655   39.5584 dc         1 CLA      0.024100
    113 HHD        72.6348   58.2004   39.0817 da         1 CLA      0.174300
    114 HHC        76.9631   61.1322   42.7301 da         1 CLA      0.136800
    115 HHB        81.3741   60.9660   37.8846 da         1 CLA      0.138300
    116 HBD        76.8121   57.1277   33.4993 dc         1 CLA      0.107700
    117 HAB        78.6587   62.2268   43.4624 da         1 CLA      0.155200
    118 H93        87.3651   57.7801   36.3851 dc         1 CLA      0.069500
    119 H92        87.7733   58.4838   37.9639 dc         1 CLA      0.069500
    120 H91        88.4732   56.9777   37.5145 dc         1 CLA      0.069500
    121 H8         85.4270   57.6856   37.9507 dc         1 CLA      0.029300
    122 H72        84.9422   55.2281   37.6063 dc         1 CLA      0.044400
    123 H71        86.5822   54.8388   37.3334 dc         1 CLA      0.044400
    124 H62        86.7655   55.6465   35.0364 dc         1 CLA      0.015600
    125 H61        85.1949   56.6390   35.2206 dc         1 CLA      0.015600
    126 H52        85.9098   53.7038   35.2927 dc         1 CLA      0.033200
    127 H51        85.6362   54.6194   33.7895 dc         1 CLA      0.033200
    128 H43        83.9005   52.1137   34.4950 dc         1 CLA      0.037000
    129 H42        83.8615   52.7265   36.1714 dc         1 CLA      0.037000
    130 H41        82.3093   52.6995   35.3234 dc         1 CLA      0.037000
    131 H3A        81.0066   60.1431   35.5019 dc         1 CLA      0.041100
    132 H2A        79.8918   57.3311   34.9806 dc         1 CLA      0.083100
    133 H2         82.4927   55.7476   35.3470 da         1 CLA      0.180900
    134 H18        85.5730   60.5497   47.8215 dc         1 CLA     -0.003900
    135 H13        85.6058   59.4188   42.3534 dc         1 CLA      0.019700
    136 H12        82.0347   54.9672   32.4023 dc         1 CLA      0.120400
    137 H11        83.4425   55.9386   32.6668 dc         1 CLA      0.120400
    138 C1         68.6708   61.8715   49.5297 Z1         2 LUT      0.509236
    139 C2         67.3275   61.8325   50.2211 Z2         2 LUT     -0.434695
    140 C3         66.5920   63.1629   50.5741 Z3         2 LUT      0.437453
    141 O3         67.0069   63.6631   51.8691 S1         2 LUT     -0.547129
    142 C4         66.8577   64.1970   49.4815 Z4         2 LUT     -0.468603
    143 C5         67.6578   63.8042   48.3108 Z5         2 LUT      0.279246
    144 C6         68.5096   62.7652   48.2490 Z6         2 LUT     -0.305473
    145 C7         68.8978   62.1445   46.9814 Z7         2 LUT      0.069402
    146 C8         69.8556   62.7402   46.2716 Z8         2 LUT     -0.191631
    147 C9         70.4516   62.5157   44.9095 Z9         2 LUT      0.196698
    148 C10        71.6061   63.1707   44.5701 Y1         2 LUT     -0.208611
    149 C11        72.3113   63.0760   43.3528 Y2         2 LUT      0.030784
    150 C12        73.4663   63.8532   43.2161 Y3         2 LUT     -0.220316
    151 C13        74.3679   63.8907   42.0926 Y4         2 LUT      0.215937
    152 C14        75.5980   64.5618   42.2591 Y5         2 LUT     -0.185793
    153 C15        76.6585   64.7058   41.3163 Y6         2 LUT     -0.057835
    154 C16        69.1704   60.4682   49.2458 Y7         2 LUT     -0.405615
    155 C17        69.5913   62.6360   50.4993 Y7         2 LUT     -0.405615
    156 C18        67.2108   64.6411   47.1359 Y9         2 LUT     -0.369639
    157 C19        69.8833   61.4580   44.0039 W1         2 LUT     -0.333362
    158 C20        74.0232   63.2518   40.7526 W2         2 LUT     -0.323439
    159 C21        87.8996   66.2601   35.1965 Z1         2 LUT      0.406104
    160 C22        88.6504   65.5814   34.0315 Z2         2 LUT     -0.404965
    161 C23        88.6833   66.3565   32.7668 Z3         2 LUT      0.391255
    162 O23        89.1600   65.4518   31.7144 S1         2 LUT     -0.528210
    163 C24        87.4539   67.2225   32.4959 W6         2 LUT     -0.258361
    164 C25        86.3853   67.3309   33.3064 Z5         2 LUT      0.133546
    165 C26        86.3924   66.6866   34.7232 W8         2 LUT     -0.147008
    166 C27        85.6818   67.4838   35.7790 Z7         2 LUT      0.023843
    167 C28        84.6375   66.9719   36.4626 Z8         2 LUT     -0.216987
    168 C29        84.0211   67.3264   37.7750 Z9         2 LUT      0.206524
    169 C30        82.9817   66.6287   38.2195 Y1         2 LUT     -0.215556
    170 C31        82.1617   66.6415   39.3997 Y2         2 LUT      0.025142
    171 C32        80.9680   65.9577   39.5657 Y3         2 LUT     -0.212209
    172 C33        80.0681   66.1342   40.6860 Y4         2 LUT      0.240937
    173 C34        78.9028   65.4993   40.7289 Y5         2 LUT     -0.218862
    174 C35        77.7401   65.4971   41.5610 Y6         2 LUT     -0.023547
    175 C36        88.8339   67.4545   35.5432 Y7         2 LUT     -0.393485
    176 C37        87.9103   65.3727   36.3999 Y7         2 LUT     -0.393485
    177 C38        85.1668   68.0510   32.7878 Y9         2 LUT     -0.387526
    178 C39        84.5601   68.4624   38.5581 W1         2 LUT     -0.322618
    179 C40        80.7068   66.9009   41.8837 W2         2 LUT     -0.358472
    180 H403       80.1228   66.7160   42.7883 R7         2 LUT      0.097720
    181 H402       81.7247   66.5406   42.0454 R7         2 LUT      0.097720
    182 H401       80.8863   67.9802   41.7998 R7         2 LUT      0.097720
    183 H393       85.5574   68.7247   38.2242 R4         2 LUT      0.082505
    184 H392       84.0295   69.3726   38.5959 R4         2 LUT      0.082505
    185 H391       84.8446   68.2293   39.6472 R4         2 LUT      0.082505
    186 H383       84.4008   67.3530   32.6399 R1         2 LUT      0.104030
    187 H382       84.7696   68.8326   33.4355 R1         2 LUT      0.104030
    188 H381       85.3146   68.5114   31.7736 R1         2 LUT      0.104030
    189 H373       87.4885   64.4227   36.1160 T4         2 LUT      0.089537
    190 H372       88.9026   65.0476   36.7099 T4         2 LUT      0.089537
    191 H371       87.3095   65.7830   37.2064 T4         2 LUT      0.089537
    192 H363       88.5688   68.3749   34.9186 T4         2 LUT      0.089537
    193 H362       88.5697   67.7914   36.5701 T4         2 LUT      0.089537
    194 H361       89.9609   67.2462   35.5832 T4         2 LUT      0.089537
    195 H222       89.6619   65.3273   34.4080 U2         2 LUT      0.127376
    196 H221       88.1089   64.6424   33.8012 U2         2 LUT      0.127376
    197 H203       74.0008   64.0378   40.0333 R7         2 LUT      0.087068
    198 H202       74.8005   62.5995   40.5021 R7         2 LUT      0.087068
    199 H201       73.0364   62.7777   40.5668 R7         2 LUT      0.087068
    200 H193       69.5268   61.9882   43.1190 R4         2 LUT      0.089716
    201 H192       70.5146   60.6689   43.7819 R4         2 LUT      0.089716
    202 H191       68.9666   60.9405   44.3717 R4         2 LUT      0.089716
    203 H183       67.7270   64.2527   46.1681 R1         2 LUT      0.094572
    204 H182       66.1387   64.6533   46.8817 R1         2 LUT      0.094572
    205 H181       67.5530   65.6673   47.3657 R1         2 LUT      0.094572
    206 H173       69.6364   62.2522   51.5163 T4         2 LUT      0.093752
    207 H172       70.5896   62.6252   50.1026 T4         2 LUT      0.093752
    208 H171       69.2888   63.6991   50.6921 T4         2 LUT      0.093752
    209 H163       68.6826   59.8559   48.5058 T4         2 LUT      0.093752
    210 H162       70.1895   60.6831   48.8268 T4         2 LUT      0.093752
    211 H161       69.2433   59.7365   50.0863 T4         2 LUT      0.093752
    212 HO3        66.5331   63.2053   52.5833 Q1         2 LUT      0.300121
    213 H8         70.3166   63.6359   46.6439 U7         2 LUT      0.080784
    214 H7         68.3774   61.2356   46.6548 U6         2 LUT      0.042190
    215 H42        65.8745   64.5167   49.2177 U5         2 LUT      0.145166
    216 H41        67.2849   65.0235   49.9656 U5         2 LUT      0.145166
    217 H35        77.6797   66.0644   42.4616 T3         2 LUT      0.077919
    218 H34        78.6734   64.8898   39.8243 T2         2 LUT      0.073626
    219 H32        80.5692   65.2003   38.8138 T1         2 LUT      0.092510
    220 H31        82.4791   67.4031   40.1283 U9         2 LUT      0.070048
    221 H30        82.6462   65.9123   37.4657 U8         2 LUT      0.085442
    222 H3         65.5162   63.0308   50.6434 U3         2 LUT     -0.031596
    223 H28        84.0563   66.2797   35.8523 U7         2 LUT      0.084728
    224 H27        86.3431   68.2508   36.1859 U6         2 LUT      0.087291
    225 H26        85.7299   65.7843   34.5373 Q6         2 LUT      0.075325
    226 H24        87.4449   67.6716   31.4932 Q5         2 LUT      0.094482
    227 H23        89.3668   67.1585   33.0079 U3         2 LUT     -0.024869
    228 H22        66.6837   61.4553   49.4291 U2         2 LUT      0.127376
    229 H21        67.3366   61.1709   51.0796 U2         2 LUT      0.127376
    230 H15        76.5829   64.2731   40.3328 T3         2 LUT      0.093200
    231 H14        75.8151   64.9650   43.2139 T2         2 LUT      0.068865
    232 H12        73.7452   64.3876   44.0771 T1         2 LUT      0.095507
    233 H11        71.9141   62.5651   42.4676 U9         2 LUT      0.068930
    234 H10        71.9507   63.8518   45.3008 U8         2 LUT      0.083911
    235 H1         89.3328   65.8604   30.8322 Q1         2 LUT      0.297311
@<TRIPOS>BOND
    1     6     1 1
    2     7     2 1
    3     8     3 1
    4     9     4 1
    5    11     4 1
    6    12     6 1
    7    13     9 1
    8    16     9 1
    9    25     5 1
   10    25    16 1
   11    26    10 1
   12    26    17 1
   13    27    18 1
   14    28    14 1
   15    28    19 1
   16    29    12 1
   17    30    13 1
   18    31    24 1
   19    32     1 1
   20    32    25 1
   21    33    21 1
   22    33    26 1
   23    34    22 1
   24    34    27 1
   25    35    23 1
   26    35    28 1
   27    36    12 1
   28    36    24 1
   29    37    13 1
   30    37    15 1
   31    38    31 1
   32    39    20 1
   33    39    32 1
   34    40     2 1
   35    40    33 1
   36    41     3 1
   37    41    34 1
   38    42     4 1
   39    42    35 1
   40    43    38 1
   41    44     5 1
   42    44    17 1
   43    44    39 1
   44    45    10 1
   45    45    18 1
   46    45    40 1
   47    46    19 1
   48    46    41 1
   49    47    14 1
   50    47    16 1
   51    47    42 1
   52    48    38 1
   53    49    48 1
   54    50    49 1
   55    51    50 1
   56    52    51 1
   57    53    51 1
   58    54    53 1
   59    55    54 1
   60    56    55 1
   61    57    56 1
   62    58    56 1
   63    59    58 1
   64    60    59 1
   65    61    60 1
   66    62    61 1
   67    63    61 1
   68    64    27 1
   69    64    46 1
   70    65     5 1
   71    65    10 1
   72    65    64 1
   73    65    14 1
   74    66    23 1
   75    67    23 1
   76    68    23 1
   77    69    22 1
   78    70    22 1
   79    71    22 1
   80    72    21 1
   81    73    21 1
   82    74    21 1
   83    75    20 1
   84    76    20 1
   85    77    20 1
   86    78    15 1
   87    79    15 1
   88    80    15 1
   89    81     8 1
   90    82     8 1
   91    83     8 1
   92    84     7 1
   93    85     7 1
   94    86     6 1
   95    87     6 1
   96    88     3 1
   97    89     3 1
   98    90     1 1
   99    91     1 1
  100    92    63 1
  101    93    63 1
  102    94    63 1
  103    95    62 1
  104    96    62 1
  105    97    62 1
  106    98    60 1
  107    99    60 1
  108   100    59 1
  109   101    59 1
  110   102    58 1
  111   103    58 1
  112   104    57 1
  113   105    57 1
  114   106    57 1
  115   107    55 1
  116   108    55 1
  117   109    54 1
  118   110    54 1
  119   111    53 1
  120   112    53 1
  121   113    19 1
  122   114    18 1
  123   115    17 1
  124   116     9 1
  125   117     2 1
  126   118    52 1
  127   119    52 1
  128   120    52 1
  129   121    51 1
  130   122    50 1
  131   123    50 1
  132   124    49 1
  133   125    49 1
  134   126    48 1
  135   127    48 1
  136   128    43 1
  137   129    43 1
  138   130    43 1
  139   131    39 1
  140   132    32 1
  141   133    31 1
  142   134    61 1
  143   135    56 1
  144   136    24 1
  145   137    24 1
  146   139   138 1
  147   140   139 1
  148   141   140 1
  149   142   140 1
  150   143   142 1
  151   144   138 1
  152   144   143 1
  153   145   144 1
  154   146   145 1
  155   147   146 1
  156   148   147 1
  157   149   148 1
  158   150   149 1
  159   151   150 1
  160   152   151 1
  161   153   152 1
  162   154   138 1
  163   155   138 1
  164   156   143 1
  165   157   147 1
  166   158   151 1
  167   160   159 1
  168   161   160 1
  169   162   161 1
  170   163   161 1
  171   164   163 1
  172   165   159 1
  173   165   164 1
  174   166   165 1
  175   167   166 1
  176   168   167 1
  177   169   168 1
  178   170   169 1
  179   171   170 1
  180   172   171 1
  181   173   172 1
  182   174   153 1
  183   174   173 1
  184   175   159 1
  185   176   159 1
  186   177   164 1
  187   178   168 1
  188   179   172 1
  189   180   179 1
  190   181   179 1
  191   182   179 1
  192   183   178 1
  193   184   178 1
  194   185   178 1
  195   186   177 1
  196   187   177 1
  197   188   177 1
  198   189   176 1
  199   190   176 1
  200   191   176 1
  201   192   175 1
  202   193   175 1
  203   194   175 1
  204   195   160 1
  205   196   160 1
  206   197   158 1
  207   198   158 1
  208   199   158 1
  209   200   157 1
  210   201   157 1
  211   202   157 1
  212   203   156 1
  213   204   156 1
  214   205   156 1
  215   206   155 1
  216   207   155 1
  217   208   155 1
  218   209   154 1
  219   210   154 1
  220   211   154 1
  221   212   141 1
  222   213   146 1
  223   214   145 1
  224   215   142 1
  225   216   142 1
  226   217   174 1
  227   218   173 1
  228   219   171 1
  229   220   170 1
  230   221   169 1
  231   222   140 1
  232   223   167 1
  233   224   166 1
  234   225   165 1
  235   226   163 1
  236   227   161 1
  237   228   139 1
  238   229   139 1
  239   230   153 1
  240   231   152 1
  241   232   150 1
  242   233   149 1
  243   234   148 1
  244   235   162 1
  245   65    153 1
  246   65    174 1
@<TRIPOS>SUBSTRUCTURE
      1 CLA               1 ****               0 ****  **** 
      2 LUT             138 ****               0 ****  **** 
