@<TRIPOS>MOLECULE
Cpptraj generated mol2 file.
  235   246     2     0     0
SMALL
USER_CHARGES


@<TRIPOS>ATOM
      1 CAA        78.2932   57.8435   34.8380 a2         1 CLA     -0.055900
      2 CAB        78.9566   62.0907   43.6888 c8         1 CLA     -0.148500
      3 CAC        71.7941   58.5017   43.7241 a2         1 CLA     -0.012600
      4 CAD        73.9421   55.7251   36.4107 ck         1 CLA      0.398800
      5 NA         77.4587   58.5964   38.1365 ns         1 CLA     -0.225500
      6 CBA        79.5272   57.5879   33.9300 a2         1 CLA     -0.135000
      7 CBB        78.9432   61.6051   44.8934 c0         1 CLA     -0.395200
      8 CBC        71.5377   57.0453   43.5103 a3         1 CLA     -0.037700
      9 CBD        75.5003   55.8905   36.1903 a1         1 CLA     -0.053900
     10 NB         77.6322   60.0276   40.8740 nm         1 CLA     -0.295700
     11 OBD        73.2254   55.0503   35.6661 o2         1 CLA     -0.494600
     12 CGA        79.9352   56.1765   33.6024 c4         1 CLA      0.827000
     13 CGD        76.0727   54.5493   36.5869 c4         1 CLA      0.655300
     14 ND         74.5989   58.0294   38.9697 nm         1 CLA     -0.291600
     15 CED        76.5954   53.1463   38.3572 a3         1 CLA      0.005400
     16 CHA        75.9316   57.0585   37.0508 cs         1 CLA     -0.123800
     17 CHB        79.4018   59.6004   39.2608 aa         1 CLA     -0.291900
     18 CHC        76.4162   60.4306   42.9562 aa         1 CLA     -0.090400
     19 CHD        72.7459   58.2910   40.5198 aa         1 CLA     -0.052000
     20 CMA        80.8114   57.3648   37.4661 a3         1 CLA     -0.230700
     21 CMB        81.1800   61.4149   41.2879 a3         1 CLA     -0.180800
     22 CMC        74.2058   60.1830   45.0493 a3         1 CLA     -0.134000
     23 CMD        71.1004   56.5499   38.4017 a3         1 CLA     -0.141100
     24 C1         80.5098   54.0347   34.3406 a2         1 CLA      0.023000
     25 C1A        77.1206   57.7057   37.1475 ac         1 CLA     -0.015100
     26 C1B        78.8739   60.1996   40.4192 cr         1 CLA      0.054700
     27 C1C        75.1498   59.8323   42.7316 cn         1 CLA     -0.005600
     28 C1D        73.2544   57.7750   39.3539 ap         1 CLA     -0.047300
     29 O1A        79.9354   55.7449   32.4450 o2         1 CLA     -0.610800
     30 O1D        76.8118   53.8257   35.8751 o2         1 CLA     -0.558200
     31 C2         80.7976   53.1618   35.5251 c8         1 CLA     -0.325100
     32 C2A        78.4289   57.4194   36.3237 a1         1 CLA      0.098600
     33 C2B        79.6511   61.0690   41.4005 cb         1 CLA      0.088500
     34 C2C        74.1571   59.6259   43.7128 cb         1 CLA      0.053700
     35 C2D        72.6453   56.9325   38.4057 cb         1 CLA      0.058900
     36 O2A        80.1814   55.4061   34.7325 o1         1 CLA     -0.437200
     37 O2D        75.8030   54.2903   37.8905 o1         1 CLA     -0.357600
     38 C3         82.0002   53.1111   36.2086 c5         1 CLA      0.031200
     39 C3A        79.5790   58.2122   37.0236 a1         1 CLA      0.166800
     40 C3B        78.7163   61.3404   42.3973 cb         1 CLA      0.035000
     41 C3C        73.1066   58.9607   43.0388 cb         1 CLA     -0.089900
     42 C3D        73.6283   56.5681   37.5075 cb         1 CLA     -0.035900
     43 C4         83.0323   52.1048   35.8307 a3         1 CLA     -0.053300
     44 C4A        78.8140   58.9333   38.1902 ac         1 CLA      0.001800
     45 C4B        77.4847   60.5963   42.0814 cn         1 CLA     -0.020900
     46 C4C        73.4958   58.8728   41.6323 cr         1 CLA     -0.044400
     47 C4D        74.7918   57.2578   37.8632 c6         1 CLA     -0.046000
     48 C5         82.1422   53.8453   37.5356 a2         1 CLA     -0.070400
     49 C6         83.3429   54.8379   37.5572 a2         1 CLA      0.043900
     50 C7         83.5601   55.3667   38.9985 a2         1 CLA     -0.150000
     51 C8         84.5001   56.6165   39.1521 a1         1 CLA      0.064200
     52 C9         85.9014   56.2887   38.5196 a3         1 CLA     -0.259300
     53 C10        84.6429   57.1815   40.6386 a2         1 CLA     -0.071900
     54 C11        83.3599   57.8251   41.2267 a2         1 CLA      0.014500
     55 C12        83.6254   58.5374   42.5752 a2         1 CLA     -0.112100
     56 C13        84.1513   57.6595   43.7436 a1         1 CLA      0.089200
     57 C14        83.3053   56.3527   43.9662 a3         1 CLA     -0.239100
     58 C15        84.5535   58.4078   45.0761 a2         1 CLA     -0.102200
     59 C16        83.3625   59.0930   45.6926 a2         1 CLA      0.023900
     60 C17        83.8199   60.3852   46.4003 a2         1 CLA     -0.105700
     61 C18        84.0825   60.2901   47.9955 a1         1 CLA      0.206800
     62 C19        85.0864   59.1997   48.4190 a3         1 CLA     -0.280100
     63 C20        84.5602   61.6318   48.5357 a3         1 CLA     -0.280100
     64 NC         74.8195   59.2620   41.5470 nx         1 CLA     -0.309200
     65 MG         76.1086   59.0694   39.7752 mg         1 CLA      0.895000
     66 HMD3       70.5370   57.3617   38.1108 dc         1 CLA      0.064300
     67 HMD2       70.9853   55.5905   37.8120 dc         1 CLA      0.064300
     68 HMD1       70.7026   56.3230   39.3676 dc         1 CLA      0.064300
     69 HMC3       75.0090   59.8980   45.6295 dc         1 CLA      0.052100
     70 HMC2       74.1392   61.2951   44.9527 dc         1 CLA      0.052100
     71 HMC1       73.2883   60.0125   45.5432 dc         1 CLA      0.052100
     72 HMB3       81.5955   61.5542   42.2649 dc         1 CLA      0.063600
     73 HMB2       81.8200   60.6274   40.8952 dc         1 CLA      0.063600
     74 HMB1       81.2210   62.3540   40.7760 dc         1 CLA      0.063600
     75 HMA3       81.4702   57.0837   36.6932 dc         1 CLA      0.058300
     76 HMA2       81.4097   57.8754   38.2050 dc         1 CLA      0.058300
     77 HMA1       80.3888   56.3878   37.8667 dc         1 CLA      0.058300
     78 HED3       76.3686   52.7828   39.3627 dc         1 CLA      0.079300
     79 HED2       76.4715   52.2309   37.7935 dc         1 CLA      0.079300
     80 HED1       77.6616   53.4110   38.4188 dc         1 CLA      0.079300
     81 HBC3       71.9100   56.3937   44.2943 dc         1 CLA      0.016300
     82 HBC2       70.4924   56.9444   43.5832 dc         1 CLA      0.016300
     83 HBC1       71.7045   56.6431   42.5097 dc         1 CLA      0.016300
     84 HBB2       79.1216   62.1353   45.7764 da         1 CLA      0.183000
     85 HBB1       78.6756   60.5880   45.1498 da         1 CLA      0.183000
     86 HBA2       79.3255   58.1597   33.0124 dc         1 CLA      0.029400
     87 HBA1       80.4372   58.0494   34.3705 dc         1 CLA      0.029400
     88 HAC2       71.8492   58.8150   44.7504 dc         1 CLA      0.029300
     89 HAC1       70.9712   59.0576   43.1868 dc         1 CLA      0.029300
     90 HAA2       77.4053   57.3027   34.4575 dc         1 CLA      0.028700
     91 HAA1       77.9171   58.8436   34.7708 dc         1 CLA      0.028700
     92 H203       84.7421   61.5195   49.5559 dc         1 CLA      0.065600
     93 H202       85.4664   61.9289   47.9281 dc         1 CLA      0.065600
     94 H201       83.9019   62.5051   48.2838 dc         1 CLA      0.065600
     95 H193       86.1530   59.2999   48.0105 dc         1 CLA      0.065600
     96 H192       85.2617   59.2157   49.4909 dc         1 CLA      0.065600
     97 H191       84.7964   58.1706   48.1524 dc         1 CLA      0.065600
     98 H172       84.6207   60.9073   45.9490 dc         1 CLA      0.027600
     99 H171       82.9563   61.1143   46.3985 dc         1 CLA      0.027600
    100 H162       82.5822   59.4257   44.9626 dc         1 CLA      0.002900
    101 H161       82.9034   58.4285   46.3846 dc         1 CLA      0.002900
    102 H152       85.0574   57.6117   45.6712 dc         1 CLA      0.029100
    103 H151       85.3704   59.1418   44.8573 dc         1 CLA      0.029100
    104 H143       82.3082   56.5068   44.4220 dc         1 CLA      0.063600
    105 H142       83.1381   55.7807   43.0183 dc         1 CLA      0.063600
    106 H141       83.8620   55.5441   44.4549 dc         1 CLA      0.063600
    107 H122       84.3042   59.3236   42.4683 dc         1 CLA      0.032500
    108 H121       82.6114   58.9006   42.8610 dc         1 CLA      0.032500
    109 H112       82.8744   58.6037   40.5512 dc         1 CLA      0.006600
    110 H111       82.5655   57.1038   41.3957 dc         1 CLA      0.006600
    111 H102       84.8017   56.3170   41.3054 dc         1 CLA      0.024100
    112 H101       85.3936   57.9196   40.6899 dc         1 CLA      0.024100
    113 HHD        71.6816   58.0662   40.7841 da         1 CLA      0.174300
    114 HHC        76.5053   60.8320   43.9501 da         1 CLA      0.136800
    115 HHB        80.4762   59.7084   39.1974 da         1 CLA      0.138300
    116 HBD        75.7293   55.9924   35.1620 dc         1 CLA      0.107700
    117 HAB        79.4388   63.0917   43.5622 da         1 CLA      0.155200
    118 H93        85.8449   55.8934   37.5313 dc         1 CLA      0.069500
    119 H92        86.2918   57.3144   38.4111 dc         1 CLA      0.069500
    120 H91        86.5315   55.6413   39.1083 dc         1 CLA      0.069500
    121 H8         84.1103   57.3812   38.4559 dc         1 CLA      0.029300
    122 H72        82.6399   55.5315   39.6173 dc         1 CLA      0.044400
    123 H71        84.2241   54.6513   39.4412 dc         1 CLA      0.044400
    124 H62        84.2385   54.3067   37.2860 dc         1 CLA      0.015600
    125 H61        83.2912   55.6655   36.7937 dc         1 CLA      0.015600
    126 H52        81.1981   54.1461   37.9593 dc         1 CLA      0.033200
    127 H51        82.5932   53.0443   38.1666 dc         1 CLA      0.033200
    128 H43        83.1189   51.2993   36.5866 dc         1 CLA      0.037000
    129 H42        82.6658   51.7066   34.8669 dc         1 CLA      0.037000
    130 H41        84.0222   52.6014   35.6626 dc         1 CLA      0.037000
    131 H3A        79.8950   58.9992   36.3422 dc         1 CLA      0.041100
    132 H2A        78.5809   56.3363   36.3468 dc         1 CLA      0.083100
    133 H2         80.0722   52.3723   35.7997 da         1 CLA      0.180900
    134 H18        83.1041   60.0189   48.4074 dc         1 CLA     -0.003900
    135 H13        85.0794   57.1519   43.4303 dc         1 CLA      0.019700
    136 H12        79.7031   53.5635   33.7457 dc         1 CLA      0.120400
    137 H11        81.3643   54.0325   33.6343 dc         1 CLA      0.120400
    138 C1         68.0980   62.2073   50.7884 Z1         2 LUT      0.509236
    139 C2         67.3760   62.8493   51.9847 Z2         2 LUT     -0.434695
    140 C3         65.9455   63.2786   51.7268 Z3         2 LUT      0.437453
    141 O3         65.5045   64.0897   52.7933 S1         2 LUT     -0.547129
    142 C4         65.9540   64.1368   50.5105 Z4         2 LUT     -0.468603
    143 C5         66.7023   63.6628   49.3242 Z5         2 LUT      0.279246
    144 C6         67.5701   62.6286   49.4055 Z6         2 LUT     -0.305473
    145 C7         68.2992   62.0265   48.1802 Z7         2 LUT      0.069402
    146 C8         69.1393   62.7763   47.3739 Z8         2 LUT     -0.191631
    147 C9         69.8366   62.3304   46.1551 Z9         2 LUT      0.196698
    148 C10        70.8648   63.1006   45.5343 Y1         2 LUT     -0.208611
    149 C11        71.6461   62.8593   44.3403 Y2         2 LUT      0.030784
    150 C12        72.7585   63.5868   44.0894 Y3         2 LUT     -0.220316
    151 C13        73.6095   63.2821   42.8692 Y4         2 LUT      0.215937
    152 C14        74.9207   63.8181   42.8606 Y5         2 LUT     -0.185793
    153 C15        75.9868   63.8465   41.8997 Y6         2 LUT     -0.057835
    154 C16        67.7797   60.7140   50.8770 Y7         2 LUT     -0.405615
    155 C17        69.6450   62.2826   50.9411 Y7         2 LUT     -0.405615
    156 C18        66.3401   64.4346   48.1332 Y9         2 LUT     -0.369639
    157 C19        69.2343   61.1504   45.4591 W1         2 LUT     -0.333362
    158 C20        72.9835   62.4883   41.7266 W2         2 LUT     -0.323439
    159 C21        87.2027   64.5094   35.4062 Z1         2 LUT      0.406104
    160 C22        88.0764   64.1754   34.1431 Z2         2 LUT     -0.404965
    161 C23        88.0795   65.2091   33.1193 Z3         2 LUT      0.391255
    162 O23        88.7994   64.6547   31.9653 S1         2 LUT     -0.528210
    163 C24        86.7422   65.8737   32.8430 W6         2 LUT     -0.258361
    164 C25        85.6957   65.8072   33.6881 Z5         2 LUT      0.133546
    165 C26        85.7554   64.9215   34.9253 W8         2 LUT     -0.147008
    166 C27        84.9927   65.6318   36.0834 Z7         2 LUT      0.023843
    167 C28        83.9291   65.2615   36.7628 Z8         2 LUT     -0.216987
    168 C29        83.2361   65.9763   37.8591 Z9         2 LUT      0.206524
    169 C30        82.1692   65.2625   38.3241 Y1         2 LUT     -0.215556
    170 C31        81.3179   65.6292   39.3664 Y2         2 LUT      0.025142
    171 C32        80.2176   65.0043   39.7654 Y3         2 LUT     -0.212209
    172 C33        79.2988   65.2494   40.9574 Y4         2 LUT      0.240937
    173 C34        78.1678   64.4973   40.9877 Y5         2 LUT     -0.218862
    174 C35        77.1679   64.5855   41.9892 Y6         2 LUT     -0.023547
    175 C36        87.9014   65.5752   36.2953 Y7         2 LUT     -0.393485
    176 C37        87.1956   63.2098   36.2337 Y7         2 LUT     -0.393485
    177 C38        84.3670   66.4352   33.4459 Y9         2 LUT     -0.387526
    178 C39        83.7540   67.2190   38.4652 W1         2 LUT     -0.322618
    179 C40        79.6075   66.3882   41.8356 W2         2 LUT     -0.358472
    180 H403       80.2747   66.2171   42.6938 R7         2 LUT      0.097720
    181 H402       79.9999   67.3001   41.3190 R7         2 LUT      0.097720
    182 H401       78.6752   66.8008   42.2723 R7         2 LUT      0.097720
    183 H393       84.5285   67.6802   37.9003 R4         2 LUT      0.082505
    184 H392       82.9451   67.8686   38.7378 R4         2 LUT      0.082505
    185 H391       84.1950   66.8471   39.3798 R4         2 LUT      0.082505
    186 H383       83.5055   65.7408   33.6672 R1         2 LUT      0.104030
    187 H382       84.2305   67.3625   34.0283 R1         2 LUT      0.104030
    188 H381       84.2720   66.7838   32.4240 R1         2 LUT      0.104030
    189 H373       86.9686   63.3786   37.2937 T4         2 LUT      0.089537
    190 H372       86.5041   62.4871   35.8404 T4         2 LUT      0.089537
    191 H371       88.1285   62.7305   36.2254 T4         2 LUT      0.089537
    192 H363       87.8422   66.6381   35.8336 T4         2 LUT      0.089537
    193 H362       87.4516   65.6530   37.2449 T4         2 LUT      0.089537
    194 H361       88.9724   65.2820   36.4968 T4         2 LUT      0.089537
    195 H222       89.0652   64.0043   34.3995 U2         2 LUT      0.127376
    196 H221       87.7245   63.2464   33.6983 U2         2 LUT      0.127376
    197 H203       73.8613   62.3897   40.9733 R7         2 LUT      0.087068
    198 H202       72.5320   61.4909   41.9186 R7         2 LUT      0.087068
    199 H201       72.2251   63.0211   41.1699 R7         2 LUT      0.087068
    200 H193       68.4042   61.4457   44.8252 R4         2 LUT      0.089716
    201 H192       69.8935   60.7548   44.7431 R4         2 LUT      0.089716
    202 H191       68.7495   60.3794   46.0432 R4         2 LUT      0.089716
    203 H183       66.9336   65.3095   48.0429 R1         2 LUT      0.094572
    204 H182       66.3795   63.7218   47.2342 R1         2 LUT      0.094572
    205 H181       65.3825   64.8769   48.2882 R1         2 LUT      0.094572
    206 H173       70.1206   61.6472   50.1638 T4         2 LUT      0.093752
    207 H172       70.0257   63.3050   50.7312 T4         2 LUT      0.093752
    208 H171       70.1161   62.0905   51.8889 T4         2 LUT      0.093752
    209 H163       66.6775   60.4872   50.7767 T4         2 LUT      0.093752
    210 H162       68.2285   60.2119   49.9795 T4         2 LUT      0.093752
    211 H161       68.1539   60.2160   51.7174 T4         2 LUT      0.093752
    212 HO3        65.2111   63.5642   53.5717 Q1         2 LUT      0.300121
    213 H8         69.2250   63.7660   47.6317 U7         2 LUT      0.080784
    214 H7         68.2429   60.9439   47.9637 U6         2 LUT      0.042190
    215 H42        64.8975   64.4263   50.2344 U5         2 LUT      0.145166
    216 H41        66.4696   65.1152   50.7871 U5         2 LUT      0.145166
    217 H35        77.4150   65.0421   42.9124 T3         2 LUT      0.077919
    218 H34        78.0191   63.8667   40.1176 T2         2 LUT      0.073626
    219 H32        80.0131   64.1039   39.2377 T1         2 LUT      0.092510
    220 H31        81.6844   66.4801   40.0178 U9         2 LUT      0.070048
    221 H30        81.8087   64.3578   37.8172 U8         2 LUT      0.085442
    222 H3         65.4380   62.2953   51.5615 U3         2 LUT     -0.031596
    223 H28        83.5029   64.3287   36.3565 U7         2 LUT      0.084728
    224 H27        85.3089   66.6697   36.3264 U6         2 LUT      0.087291
    225 H26        85.3465   63.9530   34.5431 Q6         2 LUT      0.075325
    226 H24        86.7332   66.5206   31.9765 Q5         2 LUT      0.094482
    227 H23        88.8439   65.9008   33.4904 U3         2 LUT     -0.024869
    228 H22        67.4062   62.2206   52.8819 U2         2 LUT      0.127376
    229 H21        67.9064   63.8192   52.2309 U2         2 LUT      0.127376
    230 H15        75.8089   63.1982   40.9716 T3         2 LUT      0.093200
    231 H14        75.2410   64.4885   43.6682 T2         2 LUT      0.068865
    232 H12        72.9438   64.4567   44.7969 T1         2 LUT      0.095507
    233 H11        71.3282   62.0509   43.7439 U9         2 LUT      0.068930
    234 H10        71.0976   63.9997   46.0993 U8         2 LUT      0.083911
    235 H1         88.2932   64.3091   31.2492 Q1         2 LUT      0.297311
@<TRIPOS>BOND
    1     6     1 1
    2     7     2 1
    3     8     3 1
    4     9     4 1
    5    11     4 1
    6    12     6 1
    7    13     9 1
    8    16     9 1
    9    25     5 1
   10    25    16 1
   11    26    10 1
   12    26    17 1
   13    27    18 1
   14    28    14 1
   15    28    19 1
   16    29    12 1
   17    30    13 1
   18    31    24 1
   19    32     1 1
   20    32    25 1
   21    33    21 1
   22    33    26 1
   23    34    22 1
   24    34    27 1
   25    35    23 1
   26    35    28 1
   27    36    12 1
   28    36    24 1
   29    37    13 1
   30    37    15 1
   31    38    31 1
   32    39    20 1
   33    39    32 1
   34    40     2 1
   35    40    33 1
   36    41     3 1
   37    41    34 1
   38    42     4 1
   39    42    35 1
   40    43    38 1
   41    44     5 1
   42    44    17 1
   43    44    39 1
   44    45    10 1
   45    45    18 1
   46    45    40 1
   47    46    19 1
   48    46    41 1
   49    47    14 1
   50    47    16 1
   51    47    42 1
   52    48    38 1
   53    49    48 1
   54    50    49 1
   55    51    50 1
   56    52    51 1
   57    53    51 1
   58    54    53 1
   59    55    54 1
   60    56    55 1
   61    57    56 1
   62    58    56 1
   63    59    58 1
   64    60    59 1
   65    61    60 1
   66    62    61 1
   67    63    61 1
   68    64    27 1
   69    64    46 1
   70    65     5 1
   71    65    10 1
   72    65    64 1
   73    65    14 1
   74    66    23 1
   75    67    23 1
   76    68    23 1
   77    69    22 1
   78    70    22 1
   79    71    22 1
   80    72    21 1
   81    73    21 1
   82    74    21 1
   83    75    20 1
   84    76    20 1
   85    77    20 1
   86    78    15 1
   87    79    15 1
   88    80    15 1
   89    81     8 1
   90    82     8 1
   91    83     8 1
   92    84     7 1
   93    85     7 1
   94    86     6 1
   95    87     6 1
   96    88     3 1
   97    89     3 1
   98    90     1 1
   99    91     1 1
  100    92    63 1
  101    93    63 1
  102    94    63 1
  103    95    62 1
  104    96    62 1
  105    97    62 1
  106    98    60 1
  107    99    60 1
  108   100    59 1
  109   101    59 1
  110   102    58 1
  111   103    58 1
  112   104    57 1
  113   105    57 1
  114   106    57 1
  115   107    55 1
  116   108    55 1
  117   109    54 1
  118   110    54 1
  119   111    53 1
  120   112    53 1
  121   113    19 1
  122   114    18 1
  123   115    17 1
  124   116     9 1
  125   117     2 1
  126   118    52 1
  127   119    52 1
  128   120    52 1
  129   121    51 1
  130   122    50 1
  131   123    50 1
  132   124    49 1
  133   125    49 1
  134   126    48 1
  135   127    48 1
  136   128    43 1
  137   129    43 1
  138   130    43 1
  139   131    39 1
  140   132    32 1
  141   133    31 1
  142   134    61 1
  143   135    56 1
  144   136    24 1
  145   137    24 1
  146   139   138 1
  147   140   139 1
  148   141   140 1
  149   142   140 1
  150   143   142 1
  151   144   138 1
  152   144   143 1
  153   145   144 1
  154   146   145 1
  155   147   146 1
  156   148   147 1
  157   149   148 1
  158   150   149 1
  159   151   150 1
  160   152   151 1
  161   153   152 1
  162   154   138 1
  163   155   138 1
  164   156   143 1
  165   157   147 1
  166   158   151 1
  167   160   159 1
  168   161   160 1
  169   162   161 1
  170   163   161 1
  171   164   163 1
  172   165   159 1
  173   165   164 1
  174   166   165 1
  175   167   166 1
  176   168   167 1
  177   169   168 1
  178   170   169 1
  179   171   170 1
  180   172   171 1
  181   173   172 1
  182   174   153 1
  183   174   173 1
  184   175   159 1
  185   176   159 1
  186   177   164 1
  187   178   168 1
  188   179   172 1
  189   180   179 1
  190   181   179 1
  191   182   179 1
  192   183   178 1
  193   184   178 1
  194   185   178 1
  195   186   177 1
  196   187   177 1
  197   188   177 1
  198   189   176 1
  199   190   176 1
  200   191   176 1
  201   192   175 1
  202   193   175 1
  203   194   175 1
  204   195   160 1
  205   196   160 1
  206   197   158 1
  207   198   158 1
  208   199   158 1
  209   200   157 1
  210   201   157 1
  211   202   157 1
  212   203   156 1
  213   204   156 1
  214   205   156 1
  215   206   155 1
  216   207   155 1
  217   208   155 1
  218   209   154 1
  219   210   154 1
  220   211   154 1
  221   212   141 1
  222   213   146 1
  223   214   145 1
  224   215   142 1
  225   216   142 1
  226   217   174 1
  227   218   173 1
  228   219   171 1
  229   220   170 1
  230   221   169 1
  231   222   140 1
  232   223   167 1
  233   224   166 1
  234   225   165 1
  235   226   163 1
  236   227   161 1
  237   228   139 1
  238   229   139 1
  239   230   153 1
  240   231   152 1
  241   232   150 1
  242   233   149 1
  243   234   148 1
  244   235   162 1
  245   65    153 1
  246   65    174 1
@<TRIPOS>SUBSTRUCTURE
      1 CLA               1 ****               0 ****  **** 
      2 LUT             138 ****               0 ****  **** 
