@<TRIPOS>MOLECULE
Cpptraj generated mol2 file.
  235   246     2     0     0
SMALL
USER_CHARGES


@<TRIPOS>ATOM
      1 CAA        79.6633   58.8217   33.3888 a2         1 CLA     -0.055900
      2 CAB        79.7172   62.5827   42.4265 c8         1 CLA     -0.148500
      3 CAC        72.9442   58.7814   42.2938 a2         1 CLA     -0.012600
      4 CAD        75.6384   56.3932   34.7571 ck         1 CLA      0.398800
      5 NA         78.7456   59.3008   36.8465 ns         1 CLA     -0.225500
      6 CBA        80.9446   58.7471   32.5099 a2         1 CLA     -0.135000
      7 CBB        80.8942   62.5031   43.1358 c0         1 CLA     -0.395200
      8 CBC        72.8313   57.2664   42.4083 a3         1 CLA     -0.037700
      9 CBD        76.9811   56.9907   34.3652 a1         1 CLA     -0.053900
     10 NB         78.6508   60.8470   39.3635 nm         1 CLA     -0.295700
     11 OBD        74.9619   55.5730   34.0716 o2         1 CLA     -0.494600
     12 CGA        81.5440   57.3969   32.1953 c4         1 CLA      0.827000
     13 CGD        77.9192   55.8328   34.0762 c4         1 CLA      0.655300
     14 ND         75.9380   58.4648   37.5294 nm         1 CLA     -0.291600
     15 CED        78.6024   53.6118   34.7548 a3         1 CLA      0.005400
     16 CHA        77.3413   57.8278   35.5747 cs         1 CLA     -0.123800
     17 CHB        80.5087   60.8755   37.7324 aa         1 CLA     -0.291900
     18 CHC        77.3546   61.1385   41.4673 aa         1 CLA     -0.090400
     19 CHD        74.0682   58.4381   39.0609 aa         1 CLA     -0.052000
     20 CMA        82.2753   58.8616   36.0383 a3         1 CLA     -0.230700
     21 CMB        81.9244   62.6647   39.8644 a3         1 CLA     -0.180800
     22 CMC        75.2481   60.6928   43.5907 a3         1 CLA     -0.134000
     23 CMD        72.7386   56.5480   36.7515 a3         1 CLA     -0.141100
     24 C1         82.3459   55.4030   33.2947 a2         1 CLA      0.023000
     25 C1A        78.5693   58.5315   35.7781 ac         1 CLA     -0.015100
     26 C1B        79.8902   61.3439   38.8545 cr         1 CLA      0.054700
     27 C1C        76.2138   60.3420   41.2500 cn         1 CLA     -0.005600
     28 C1D        74.6655   58.0122   37.8691 ap         1 CLA     -0.047300
     29 O1A        81.3216   56.7955   31.1479 o2         1 CLA     -0.610800
     30 O1D        78.5974   55.6971   33.0372 o2         1 CLA     -0.558200
     31 C2         83.1019   55.1645   34.6416 c8         1 CLA     -0.325100
     32 C2A        79.8768   58.4397   34.9634 a1         1 CLA      0.098600
     33 C2B        80.4984   62.0354   39.9503 cb         1 CLA      0.088500
     34 C2C        75.1558   60.0705   42.2238 cb         1 CLA      0.053700
     35 C2D        74.0937   57.2334   36.8004 cb         1 CLA      0.058900
     36 O2A        82.1115   56.7963   33.3050 o1         1 CLA     -0.437200
     37 O2D        77.9374   54.9177   35.0753 o1         1 CLA     -0.357600
     38 C3         84.2269   54.4008   34.6718 c5         1 CLA      0.031200
     39 C3A        80.9116   59.4663   35.6553 a1         1 CLA      0.166800
     40 C3B        79.5839   62.0921   41.0482 cb         1 CLA      0.035000
     41 C3C        74.2460   59.2610   41.5770 cb         1 CLA     -0.089900
     42 C3D        75.1935   57.0837   35.9264 cb         1 CLA     -0.035900
     43 C4         84.3165   52.9813   35.0001 a3         1 CLA     -0.053300
     44 C4A        79.9724   59.9529   36.8115 ac         1 CLA      0.001800
     45 C4B        78.4627   61.3606   40.6366 cn         1 CLA     -0.020900
     46 C4C        74.6935   59.0783   40.1959 cr         1 CLA     -0.044400
     47 C4D        76.2271   57.8774   36.3711 c6         1 CLA     -0.046000
     48 C5         85.4770   55.1470   34.5204 a2         1 CLA     -0.070400
     49 C6         85.6629   56.5250   35.1922 a2         1 CLA      0.043900
     50 C7         85.5963   56.3640   36.7086 a2         1 CLA     -0.150000
     51 C8         85.8821   57.5510   37.6909 a1         1 CLA      0.064200
     52 C9         87.3690   57.9437   37.4060 a3         1 CLA     -0.259300
     53 C10        85.7213   57.1252   39.1580 a2         1 CLA     -0.071900
     54 C11        85.6236   58.2438   40.1420 a2         1 CLA      0.014500
     55 C12        85.5373   57.7206   41.6586 a2         1 CLA     -0.112100
     56 C13        85.4572   58.9024   42.6645 a1         1 CLA      0.089200
     57 C14        86.7861   59.7482   42.6415 a3         1 CLA     -0.239100
     58 C15        85.1551   58.5264   44.1497 a2         1 CLA     -0.102200
     59 C16        83.7490   57.9691   44.4396 a2         1 CLA      0.023900
     60 C17        82.6681   59.1155   44.7545 a2         1 CLA     -0.105700
     61 C18        81.1728   58.6523   44.9790 a1         1 CLA      0.206800
     62 C19        81.1113   57.5756   46.0489 a3         1 CLA     -0.280100
     63 C20        80.0965   59.7471   45.2933 a3         1 CLA     -0.280100
     64 NC         75.9793   59.6625   40.1220 nx         1 CLA     -0.309200
     65 MG         77.2327   59.7521   38.3945 mg         1 CLA      0.895000
     66 HMD3       72.1062   57.3643   36.3601 dc         1 CLA      0.064300
     67 HMD2       72.8409   55.6941   36.0960 dc         1 CLA      0.064300
     68 HMD1       72.3892   56.1301   37.7052 dc         1 CLA      0.064300
     69 HMC3       75.7978   61.6097   43.5813 dc         1 CLA      0.052100
     70 HMC2       74.2793   61.0098   43.9127 dc         1 CLA      0.052100
     71 HMC1       75.5800   60.0021   44.3135 dc         1 CLA      0.052100
     72 HMB3       82.1747   63.0458   38.8283 dc         1 CLA      0.063600
     73 HMB2       81.9321   63.5239   40.5070 dc         1 CLA      0.063600
     74 HMB1       82.6190   61.9264   40.2810 dc         1 CLA      0.063600
     75 HMA3       82.1470   57.9662   36.6256 dc         1 CLA      0.058300
     76 HMA2       82.9327   58.6962   35.1282 dc         1 CLA      0.058300
     77 HMA1       82.9118   59.5464   36.6889 dc         1 CLA      0.058300
     78 HED3       79.6461   53.7304   34.5742 dc         1 CLA      0.079300
     79 HED2       78.4775   52.9394   35.5360 dc         1 CLA      0.079300
     80 HED1       78.0163   53.1233   33.9157 dc         1 CLA      0.079300
     81 HBC3       71.8657   57.0591   42.8940 dc         1 CLA      0.016300
     82 HBC2       72.8573   56.8044   41.4376 dc         1 CLA      0.016300
     83 HBC1       73.6576   56.8340   42.9890 dc         1 CLA      0.016300
     84 HBB2       80.9933   62.8012   44.2039 da         1 CLA      0.183000
     85 HBB1       81.8050   62.1158   42.6969 da         1 CLA      0.183000
     86 HBA2       80.6158   59.2265   31.5484 dc         1 CLA      0.029400
     87 HBA1       81.6486   59.4171   32.9572 dc         1 CLA      0.029400
     88 HAC2       72.9212   59.1651   43.2538 dc         1 CLA      0.029300
     89 HAC1       72.1340   59.2004   41.6793 dc         1 CLA      0.029300
     90 HAA2       78.8702   58.2685   32.8924 dc         1 CLA      0.028700
     91 HAA1       79.3603   59.9011   33.3141 dc         1 CLA      0.028700
     92 H203       80.0415   60.4122   44.5033 dc         1 CLA      0.065600
     93 H202       79.1206   59.2328   45.4582 dc         1 CLA      0.065600
     94 H201       80.2917   60.2776   46.1848 dc         1 CLA      0.065600
     95 H193       80.1048   57.1964   46.2400 dc         1 CLA      0.065600
     96 H192       81.7517   56.7438   45.7083 dc         1 CLA      0.065600
     97 H191       81.4570   57.9697   46.9765 dc         1 CLA      0.065600
     98 H172       82.9807   59.5710   45.6620 dc         1 CLA      0.027600
     99 H171       82.5788   59.8381   43.9855 dc         1 CLA      0.027600
    100 H162       83.4722   57.4379   43.6135 dc         1 CLA      0.002900
    101 H161       83.7997   57.3291   45.2843 dc         1 CLA      0.002900
    102 H152       85.8150   57.6942   44.4345 dc         1 CLA      0.029100
    103 H151       85.3460   59.4337   44.7824 dc         1 CLA      0.029100
    104 H143       87.5840   59.0432   43.0341 dc         1 CLA      0.063600
    105 H142       87.2241   60.1182   41.6790 dc         1 CLA      0.063600
    106 H141       86.7541   60.6674   43.2589 dc         1 CLA      0.063600
    107 H122       84.6106   57.1512   41.7631 dc         1 CLA      0.032500
    108 H121       86.3134   57.0804   41.8463 dc         1 CLA      0.032500
    109 H112       86.5558   58.8216   40.0578 dc         1 CLA      0.006600
    110 H111       84.7950   58.9969   40.0558 dc         1 CLA      0.006600
    111 H102       84.8610   56.4550   39.1673 dc         1 CLA      0.024100
    112 H101       86.6372   56.5077   39.4898 dc         1 CLA      0.024100
    113 HHD        73.0329   58.3228   39.0779 da         1 CLA      0.174300
    114 HHC        77.3887   61.7329   42.4241 da         1 CLA      0.136800
    115 HHB        81.4562   61.2818   37.4653 da         1 CLA      0.138300
    116 HBD        76.8018   57.5890   33.4507 dc         1 CLA      0.107700
    117 HAB        78.8800   63.1763   42.9148 da         1 CLA      0.155200
    118 H93        87.7122   58.6351   38.1757 dc         1 CLA      0.069500
    119 H92        88.1090   57.1434   37.6193 dc         1 CLA      0.069500
    120 H91        87.5562   58.4177   36.4890 dc         1 CLA      0.069500
    121 H8         85.1483   58.3695   37.4631 dc         1 CLA      0.029300
    122 H72        84.6313   55.9613   36.9363 dc         1 CLA      0.044400
    123 H71        86.2439   55.5743   36.8956 dc         1 CLA      0.044400
    124 H62        86.6858   56.7321   35.0022 dc         1 CLA      0.015600
    125 H61        84.9738   57.1835   34.7296 dc         1 CLA      0.015600
    126 H52        86.3132   54.4908   34.9039 dc         1 CLA      0.033200
    127 H51        85.7494   55.2917   33.5069 dc         1 CLA      0.033200
    128 H43        83.3043   52.5832   35.1390 dc         1 CLA      0.037000
    129 H42        84.8394   52.4976   34.1102 dc         1 CLA      0.037000
    130 H41        84.9377   52.8548   35.8725 dc         1 CLA      0.037000
    131 H3A        81.0083   60.3365   35.0902 dc         1 CLA      0.041100
    132 H2A        80.3263   57.4218   35.1804 dc         1 CLA      0.083100
    133 H2         82.8685   55.6513   35.5384 da         1 CLA      0.180900
    134 H18        80.9622   58.1779   44.0042 dc         1 CLA     -0.003900
    135 H13        84.6824   59.6394   42.4129 dc         1 CLA      0.019700
    136 H12        81.4735   54.7410   33.1839 dc         1 CLA      0.120400
    137 H11        82.9789   55.1373   32.4453 dc         1 CLA      0.120400
    138 C1         69.1633   61.6695   49.5068 Z1         2 LUT      0.509236
    139 C2         67.7443   61.5904   50.1007 Z2         2 LUT     -0.434695
    140 C3         66.8446   62.8499   50.2239 Z3         2 LUT      0.437453
    141 O3         66.8349   63.2058   51.6018 S1         2 LUT     -0.547129
    142 C4         67.4869   63.9624   49.4500 Z4         2 LUT     -0.468603
    143 C5         68.2615   63.6048   48.2267 Z5         2 LUT      0.279246
    144 C6         69.1535   62.5679   48.3022 Z6         2 LUT     -0.305473
    145 C7         69.5537   61.9855   46.9854 Z7         2 LUT      0.069402
    146 C8         70.4004   62.6643   46.2079 Z8         2 LUT     -0.191631
    147 C9         70.9533   62.3449   44.7927 Z9         2 LUT      0.196698
    148 C10        71.8770   63.1822   44.2584 Y1         2 LUT     -0.208611
    149 C11        72.6465   63.0823   42.9984 Y2         2 LUT      0.030784
    150 C12        73.6467   63.9101   42.6090 Y3         2 LUT     -0.220316
    151 C13        74.4804   63.6900   41.4305 Y4         2 LUT      0.215937
    152 C14        75.7393   64.3962   41.4741 Y5         2 LUT     -0.185793
    153 C15        76.6644   64.5686   40.3893 Y6         2 LUT     -0.057835
    154 C16        69.7590   60.2925   49.2142 Y7         2 LUT     -0.405615
    155 C17        69.9352   62.3912   50.6628 Y7         2 LUT     -0.405615
    156 C18        67.8327   64.3293   46.9945 Y9         2 LUT     -0.369639
    157 C19        70.3328   61.1689   44.1019 W1         2 LUT     -0.333362
    158 C20        73.8495   63.0010   40.2468 W2         2 LUT     -0.323439
    159 C21        88.3646   66.2031   34.3253 Z1         2 LUT      0.406104
    160 C22        88.9815   65.6956   33.0661 Z2         2 LUT     -0.404965
    161 C23        88.8507   66.7924   31.8924 Z3         2 LUT      0.391255
    162 O23        89.4501   66.0895   30.8267 S1         2 LUT     -0.528210
    163 C24        87.4519   67.1773   31.7146 W6         2 LUT     -0.258361
    164 C25        86.4664   67.1323   32.6569 Z5         2 LUT      0.133546
    165 C26        86.8731   66.6934   34.1004 W8         2 LUT     -0.147008
    166 C27        86.0759   67.2390   35.3100 Z7         2 LUT      0.023843
    167 C28        84.8872   66.8033   35.7752 Z8         2 LUT     -0.216987
    168 C29        84.1919   67.2849   36.9535 Z9         2 LUT      0.206524
    169 C30        83.0805   66.6094   37.4320 Y1         2 LUT     -0.215556
    170 C31        82.3115   66.7589   38.6786 Y2         2 LUT      0.025142
    171 C32        81.1257   66.0894   38.8216 Y3         2 LUT     -0.212209
    172 C33        80.1801   66.1095   39.9319 Y4         2 LUT      0.240937
    173 C34        78.9715   65.4499   39.7857 Y5         2 LUT     -0.218862
    174 C35        77.7870   65.3432   40.6326 Y6         2 LUT     -0.023547
    175 C36        89.2129   67.3156   34.9468 Y7         2 LUT     -0.393485
    176 C37        88.5461   65.1228   35.3868 Y7         2 LUT     -0.393485
    177 C38        85.1135   67.6479   32.3710 Y9         2 LUT     -0.387526
    178 C39        84.7222   68.4939   37.7927 W1         2 LUT     -0.322618
    179 C40        80.6237   66.7282   41.2035 W2         2 LUT     -0.358472
    180 H403       81.6823   66.5646   41.4480 R7         2 LUT      0.097720
    181 H402       80.4200   67.7709   41.2579 R7         2 LUT      0.097720
    182 H401       80.0397   66.3060   42.0194 R7         2 LUT      0.097720
    183 H393       85.4146   69.1812   37.2633 R4         2 LUT      0.082505
    184 H392       83.9447   69.2012   38.2337 R4         2 LUT      0.082505
    185 H391       85.3029   68.0433   38.5718 R4         2 LUT      0.082505
    186 H383       85.2153   68.4910   31.6011 R1         2 LUT      0.104030
    187 H382       84.5131   66.8529   32.0242 R1         2 LUT      0.104030
    188 H381       84.5825   67.9767   33.3408 R1         2 LUT      0.104030
    189 H373       89.6240   64.6984   35.3833 T4         2 LUT      0.089537
    190 H372       88.3938   65.5667   36.3644 T4         2 LUT      0.089537
    191 H371       87.7464   64.4272   35.3812 T4         2 LUT      0.089537
    192 H363       89.1527   68.2539   34.3702 T4         2 LUT      0.089537
    193 H362       89.0599   67.5614   36.0109 T4         2 LUT      0.089537
    194 H361       90.2846   67.1748   34.9388 T4         2 LUT      0.089537
    195 H222       90.0700   65.4580   33.1916 U2         2 LUT      0.127376
    196 H221       88.5130   64.7078   32.6521 U2         2 LUT      0.127376
    197 H203       74.3943   63.1564   39.3419 R7         2 LUT      0.087068
    198 H202       73.9155   61.9555   40.4687 R7         2 LUT      0.087068
    199 H201       72.7955   63.2574   39.9835 R7         2 LUT      0.087068
    200 H193       69.3666   61.4843   43.6178 R4         2 LUT      0.089716
    201 H192       70.9569   60.6529   43.3330 R4         2 LUT      0.089716
    202 H191       70.1020   60.4029   44.8010 R4         2 LUT      0.089716
    203 H183       68.3770   64.1907   46.0587 R1         2 LUT      0.094572
    204 H182       66.8061   64.1439   46.8498 R1         2 LUT      0.094572
    205 H181       67.8707   65.4034   47.0904 R1         2 LUT      0.094572
    206 H173       70.2065   61.6289   51.3985 T4         2 LUT      0.093752
    207 H172       70.8363   62.8659   50.1913 T4         2 LUT      0.093752
    208 H171       69.4733   63.1438   51.3005 T4         2 LUT      0.093752
    209 H163       69.1823   59.7706   48.4334 T4         2 LUT      0.093752
    210 H162       70.7833   60.3084   48.9152 T4         2 LUT      0.093752
    211 H161       69.6904   59.6766   50.0691 T4         2 LUT      0.093752
    212 HO3        66.1459   62.8444   52.1927 Q1         2 LUT      0.300121
    213 H8         70.8016   63.5982   46.5716 U7         2 LUT      0.080784
    214 H7         69.3257   60.9109   46.7706 U6         2 LUT      0.042190
    215 H42        66.6121   64.5209   49.3118 U5         2 LUT      0.145166
    216 H41        68.1612   64.5126   50.1959 U5         2 LUT      0.145166
    217 H35        77.8428   65.7587   41.6138 T3         2 LUT      0.077919
    218 H34        78.7687   64.9856   38.7958 T2         2 LUT      0.073626
    219 H32        80.8230   65.3737   38.0843 T1         2 LUT      0.092510
    220 H31        82.6998   67.4433   39.4701 U9         2 LUT      0.070048
    221 H30        82.7038   65.7299   36.9038 U8         2 LUT      0.085442
    222 H3         65.9274   62.5348   49.7819 U3         2 LUT     -0.031596
    223 H28        84.5567   65.8872   35.2917 U7         2 LUT      0.084728
    224 H27        86.5200   68.0184   35.8050 U6         2 LUT      0.087291
    225 H26        86.4254   65.6744   33.9346 Q6         2 LUT      0.075325
    226 H24        87.1652   67.6168   30.7625 Q5         2 LUT      0.094482
    227 H23        89.5151   67.7055   32.2541 U3         2 LUT     -0.024869
    228 H22        67.1812   60.9747   49.5093 U2         2 LUT      0.127376
    229 H21        67.7953   61.0521   51.0464 U2         2 LUT      0.127376
    230 H15        76.5544   64.0769   39.3585 T3         2 LUT      0.093200
    231 H14        75.9409   65.0658   42.3129 T2         2 LUT      0.068865
    232 H12        73.8894   64.6899   43.3020 T1         2 LUT      0.095507
    233 H11        72.5722   62.1281   42.5196 U9         2 LUT      0.068930
    234 H10        72.0214   63.9637   44.9374 U8         2 LUT      0.083911
    235 H1         89.7078   66.7229   30.1932 Q1         2 LUT      0.297311
@<TRIPOS>BOND
    1     6     1 1
    2     7     2 1
    3     8     3 1
    4     9     4 1
    5    11     4 1
    6    12     6 1
    7    13     9 1
    8    16     9 1
    9    25     5 1
   10    25    16 1
   11    26    10 1
   12    26    17 1
   13    27    18 1
   14    28    14 1
   15    28    19 1
   16    29    12 1
   17    30    13 1
   18    31    24 1
   19    32     1 1
   20    32    25 1
   21    33    21 1
   22    33    26 1
   23    34    22 1
   24    34    27 1
   25    35    23 1
   26    35    28 1
   27    36    12 1
   28    36    24 1
   29    37    13 1
   30    37    15 1
   31    38    31 1
   32    39    20 1
   33    39    32 1
   34    40     2 1
   35    40    33 1
   36    41     3 1
   37    41    34 1
   38    42     4 1
   39    42    35 1
   40    43    38 1
   41    44     5 1
   42    44    17 1
   43    44    39 1
   44    45    10 1
   45    45    18 1
   46    45    40 1
   47    46    19 1
   48    46    41 1
   49    47    14 1
   50    47    16 1
   51    47    42 1
   52    48    38 1
   53    49    48 1
   54    50    49 1
   55    51    50 1
   56    52    51 1
   57    53    51 1
   58    54    53 1
   59    55    54 1
   60    56    55 1
   61    57    56 1
   62    58    56 1
   63    59    58 1
   64    60    59 1
   65    61    60 1
   66    62    61 1
   67    63    61 1
   68    64    27 1
   69    64    46 1
   70    65     5 1
   71    65    10 1
   72    65    64 1
   73    65    14 1
   74    66    23 1
   75    67    23 1
   76    68    23 1
   77    69    22 1
   78    70    22 1
   79    71    22 1
   80    72    21 1
   81    73    21 1
   82    74    21 1
   83    75    20 1
   84    76    20 1
   85    77    20 1
   86    78    15 1
   87    79    15 1
   88    80    15 1
   89    81     8 1
   90    82     8 1
   91    83     8 1
   92    84     7 1
   93    85     7 1
   94    86     6 1
   95    87     6 1
   96    88     3 1
   97    89     3 1
   98    90     1 1
   99    91     1 1
  100    92    63 1
  101    93    63 1
  102    94    63 1
  103    95    62 1
  104    96    62 1
  105    97    62 1
  106    98    60 1
  107    99    60 1
  108   100    59 1
  109   101    59 1
  110   102    58 1
  111   103    58 1
  112   104    57 1
  113   105    57 1
  114   106    57 1
  115   107    55 1
  116   108    55 1
  117   109    54 1
  118   110    54 1
  119   111    53 1
  120   112    53 1
  121   113    19 1
  122   114    18 1
  123   115    17 1
  124   116     9 1
  125   117     2 1
  126   118    52 1
  127   119    52 1
  128   120    52 1
  129   121    51 1
  130   122    50 1
  131   123    50 1
  132   124    49 1
  133   125    49 1
  134   126    48 1
  135   127    48 1
  136   128    43 1
  137   129    43 1
  138   130    43 1
  139   131    39 1
  140   132    32 1
  141   133    31 1
  142   134    61 1
  143   135    56 1
  144   136    24 1
  145   137    24 1
  146   139   138 1
  147   140   139 1
  148   141   140 1
  149   142   140 1
  150   143   142 1
  151   144   138 1
  152   144   143 1
  153   145   144 1
  154   146   145 1
  155   147   146 1
  156   148   147 1
  157   149   148 1
  158   150   149 1
  159   151   150 1
  160   152   151 1
  161   153   152 1
  162   154   138 1
  163   155   138 1
  164   156   143 1
  165   157   147 1
  166   158   151 1
  167   160   159 1
  168   161   160 1
  169   162   161 1
  170   163   161 1
  171   164   163 1
  172   165   159 1
  173   165   164 1
  174   166   165 1
  175   167   166 1
  176   168   167 1
  177   169   168 1
  178   170   169 1
  179   171   170 1
  180   172   171 1
  181   173   172 1
  182   174   153 1
  183   174   173 1
  184   175   159 1
  185   176   159 1
  186   177   164 1
  187   178   168 1
  188   179   172 1
  189   180   179 1
  190   181   179 1
  191   182   179 1
  192   183   178 1
  193   184   178 1
  194   185   178 1
  195   186   177 1
  196   187   177 1
  197   188   177 1
  198   189   176 1
  199   190   176 1
  200   191   176 1
  201   192   175 1
  202   193   175 1
  203   194   175 1
  204   195   160 1
  205   196   160 1
  206   197   158 1
  207   198   158 1
  208   199   158 1
  209   200   157 1
  210   201   157 1
  211   202   157 1
  212   203   156 1
  213   204   156 1
  214   205   156 1
  215   206   155 1
  216   207   155 1
  217   208   155 1
  218   209   154 1
  219   210   154 1
  220   211   154 1
  221   212   141 1
  222   213   146 1
  223   214   145 1
  224   215   142 1
  225   216   142 1
  226   217   174 1
  227   218   173 1
  228   219   171 1
  229   220   170 1
  230   221   169 1
  231   222   140 1
  232   223   167 1
  233   224   166 1
  234   225   165 1
  235   226   163 1
  236   227   161 1
  237   228   139 1
  238   229   139 1
  239   230   153 1
  240   231   152 1
  241   232   150 1
  242   233   149 1
  243   234   148 1
  244   235   162 1
  245   65    153 1
  246   65    174 1
@<TRIPOS>SUBSTRUCTURE
      1 CLA               1 ****               0 ****  **** 
      2 LUT             138 ****               0 ****  **** 
