@<TRIPOS>MOLECULE
Cpptraj generated mol2 file.
  235   246     2     0     0
SMALL
USER_CHARGES


@<TRIPOS>ATOM
      1 CAA        77.2484   57.8210   35.0471 a2         1 CLA     -0.055900
      2 CAB        76.8394   62.0688   43.6842 c8         1 CLA     -0.148500
      3 CAC        70.1574   57.2627   43.0631 a2         1 CLA     -0.012600
      4 CAD        73.2478   54.9309   36.0382 ck         1 CLA      0.398800
      5 NA         76.0930   58.2944   38.2974 ns         1 CLA     -0.225500
      6 CBA        78.5394   57.8089   34.2131 a2         1 CLA     -0.135000
      7 CBB        76.5445   61.5998   44.8916 c0         1 CLA     -0.395200
      8 CBC        70.4137   55.7684   43.1988 a3         1 CLA     -0.037700
      9 CBD        74.7943   55.4143   35.9706 a1         1 CLA     -0.053900
     10 NB         75.8814   59.7935   40.8286 nm         1 CLA     -0.295700
     11 OBD        72.7521   54.0686   35.2880 o2         1 CLA     -0.494600
     12 CGA        79.2426   56.3861   33.9546 c4         1 CLA      0.827000
     13 CGD        75.7946   54.2934   36.1424 c4         1 CLA      0.655300
     14 ND         73.4222   57.1986   38.8257 nm         1 CLA     -0.291600
     15 CED        76.3100   52.3520   37.4791 a3         1 CLA      0.005400
     16 CHA        74.9576   56.6329   36.9848 cs         1 CLA     -0.123800
     17 CHB        77.7801   59.7895   39.2888 aa         1 CLA     -0.291900
     18 CHC        74.5105   60.0012   42.8258 aa         1 CLA     -0.090400
     19 CHD        71.4952   57.0906   40.3604 aa         1 CLA     -0.052000
     20 CMA        79.6851   57.6580   37.9041 a3         1 CLA     -0.230700
     21 CMB        79.0545   61.7215   41.2861 a3         1 CLA     -0.180800
     22 CMC        72.1981   59.1328   44.8714 a3         1 CLA     -0.134000
     23 CMD        70.4209   54.8901   38.1359 a3         1 CLA     -0.141100
     24 C1         80.2459   54.4163   35.0974 a2         1 CLA      0.023000
     25 C1A        76.0206   57.4738   37.2360 ac         1 CLA     -0.015100
     26 C1B        77.1403   60.2459   40.4476 cr         1 CLA      0.054700
     27 C1C        73.3624   59.2317   42.4831 cn         1 CLA     -0.005600
     28 C1D        72.1631   56.6892   39.0825 ap         1 CLA     -0.047300
     29 O1A        79.1803   55.9224   32.8421 o2         1 CLA     -0.610800
     30 O1D        76.8537   54.1609   35.5407 o2         1 CLA     -0.558200
     31 C2         80.9329   54.2790   36.4522 c8         1 CLA     -0.325100
     32 C2A        77.4366   57.4304   36.5141 a1         1 CLA      0.098600
     33 C2B        77.6721   61.1097   41.4422 cb         1 CLA      0.088500
     34 C2C        72.2281   58.8229   43.3833 cb         1 CLA      0.053700
     35 C2D        71.6443   55.7273   38.1063 cb         1 CLA      0.058900
     36 O2A        79.6501   55.7738   35.1184 o1         1 CLA     -0.437200
     37 O2D        75.3855   53.4298   37.1338 o1         1 CLA     -0.357600
     38 C3         81.8210   53.2559   36.7198 c5         1 CLA      0.031200
     39 C3A        78.3403   58.3921   37.3814 a1         1 CLA      0.166800
     40 C3B        76.7378   61.2187   42.4370 cb         1 CLA      0.035000
     41 C3C        71.4009   57.9922   42.6398 cb         1 CLA     -0.089900
     42 C3D        72.7523   55.6171   37.2228 cb         1 CLA     -0.035900
     43 C4         81.4482   52.0029   37.5093 a3         1 CLA     -0.053300
     44 C4A        77.4053   58.8601   38.3497 ac         1 CLA      0.001800
     45 C4B        75.6562   60.2198   42.1156 cn         1 CLA     -0.020900
     46 C4C        72.0338   57.8315   41.4010 cr         1 CLA     -0.044400
     47 C4D        73.7876   56.5242   37.7091 c6         1 CLA     -0.046000
     48 C5         83.2113   53.4064   36.3129 a2         1 CLA     -0.070400
     49 C6         83.8259   54.8553   36.4086 a2         1 CLA      0.043900
     50 C7         83.9683   55.2477   37.9414 a2         1 CLA     -0.150000
     51 C8         84.3299   56.6501   38.2896 a1         1 CLA      0.064200
     52 C9         85.6757   57.1628   37.5710 a3         1 CLA     -0.259300
     53 C10        84.4384   56.8834   39.8637 a2         1 CLA     -0.071900
     54 C11        83.0702   56.8152   40.5424 a2         1 CLA      0.014500
     55 C12        82.9201   57.7511   41.7432 a2         1 CLA     -0.112100
     56 C13        83.6091   57.2346   43.0739 a1         1 CLA      0.089200
     57 C14        82.8320   56.0560   43.6475 a3         1 CLA     -0.239100
     58 C15        83.5455   58.4551   44.0787 a2         1 CLA     -0.102200
     59 C16        82.1367   59.0192   44.3419 a2         1 CLA      0.023900
     60 C17        82.1643   60.1134   45.4366 a2         1 CLA     -0.105700
     61 C18        80.8013   60.8685   45.5876 a1         1 CLA      0.206800
     62 C19        80.7566   61.5134   46.9789 a3         1 CLA     -0.280100
     63 C20        80.4159   61.9393   44.5696 a3         1 CLA     -0.280100
     64 NC         73.2271   58.5331   41.3122 nx         1 CLA     -0.309200
     65 MG         74.6561   58.5894   39.8109 mg         1 CLA      0.895000
     66 HMD3       69.5647   55.3470   37.6713 dc         1 CLA      0.064300
     67 HMD2       70.6775   53.9877   37.5861 dc         1 CLA      0.064300
     68 HMD1       70.1620   54.5982   39.2444 dc         1 CLA      0.064300
     69 HMC3       73.2305   58.9518   45.2772 dc         1 CLA      0.052100
     70 HMC2       71.9402   60.1767   45.0389 dc         1 CLA      0.052100
     71 HMC1       71.4432   58.5072   45.4193 dc         1 CLA      0.052100
     72 HMB3       79.9130   61.0387   41.2907 dc         1 CLA      0.063600
     73 HMB2       79.0177   62.1369   40.2611 dc         1 CLA      0.063600
     74 HMB1       79.2310   62.5179   42.0069 dc         1 CLA      0.063600
     75 HMA3       80.1271   57.2481   37.0185 dc         1 CLA      0.058300
     76 HMA2       80.2975   58.3684   38.4812 dc         1 CLA      0.058300
     77 HMA1       79.3985   56.8680   38.5204 dc         1 CLA      0.058300
     78 HED3       76.7470   51.9386   36.5237 dc         1 CLA      0.079300
     79 HED2       77.0412   52.6851   38.1924 dc         1 CLA      0.079300
     80 HED1       75.6732   51.6633   37.9428 dc         1 CLA      0.079300
     81 HBC3       71.3061   55.5480   43.7617 dc         1 CLA      0.016300
     82 HBC2       69.5344   55.5448   43.7201 dc         1 CLA      0.016300
     83 HBC1       70.3693   55.2526   42.2234 dc         1 CLA      0.016300
     84 HBB2       76.9391   62.0950   45.7538 da         1 CLA      0.183000
     85 HBB1       76.2182   60.5016   44.9870 da         1 CLA      0.183000
     86 HBA2       78.3198   58.3214   33.2163 dc         1 CLA      0.029400
     87 HBA1       79.2767   58.3942   34.7680 dc         1 CLA      0.029400
     88 HAC2       69.8663   57.6541   43.9990 dc         1 CLA      0.029300
     89 HAC1       69.3621   57.4084   42.3556 dc         1 CLA      0.029300
     90 HAA2       76.5899   57.2532   34.4056 dc         1 CLA      0.028700
     91 HAA1       76.9070   58.8823   35.0632 dc         1 CLA      0.028700
     92 H203       81.1844   62.7073   44.7063 dc         1 CLA      0.065600
     93 H202       80.4152   61.5174   43.5634 dc         1 CLA      0.065600
     94 H201       79.4443   62.3535   44.8083 dc         1 CLA      0.065600
     95 H193       81.4298   62.3195   47.0892 dc         1 CLA      0.065600
     96 H192       79.7156   61.7743   46.9700 dc         1 CLA      0.065600
     97 H191       80.8737   60.6671   47.6561 dc         1 CLA      0.065600
     98 H172       82.3001   59.6381   46.3514 dc         1 CLA      0.027600
     99 H171       83.0175   60.8451   45.3128 dc         1 CLA      0.027600
    100 H162       81.6445   59.3939   43.4384 dc         1 CLA      0.002900
    101 H161       81.4650   58.2611   44.7605 dc         1 CLA      0.002900
    102 H152       84.0569   58.1487   45.0140 dc         1 CLA      0.029100
    103 H151       84.1662   59.2548   43.6692 dc         1 CLA      0.029100
    104 H143       81.7541   56.1645   43.7068 dc         1 CLA      0.063600
    105 H142       83.0902   55.1344   43.1079 dc         1 CLA      0.063600
    106 H141       83.0786   55.9762   44.7257 dc         1 CLA      0.063600
    107 H122       83.3142   58.6898   41.5822 dc         1 CLA      0.032500
    108 H121       81.8179   57.8100   41.8634 dc         1 CLA      0.032500
    109 H112       82.2885   57.0981   39.7332 dc         1 CLA      0.006600
    110 H111       82.8950   55.7767   40.7536 dc         1 CLA      0.006600
    111 H102       85.1694   56.2172   40.3387 dc         1 CLA      0.024100
    112 H101       84.6888   57.9063   39.7743 dc         1 CLA      0.024100
    113 HHD        70.4526   56.7360   40.4658 da         1 CLA      0.174300
    114 HHC        74.5602   60.5180   43.8482 da         1 CLA      0.136800
    115 HHB        78.8064   60.1362   39.1061 da         1 CLA      0.138300
    116 HBD        74.9683   55.8111   34.9766 dc         1 CLA      0.107700
    117 HAB        77.3988   63.0365   43.6643 da         1 CLA      0.155200
    118 H93        86.6384   56.7809   37.8229 dc         1 CLA      0.069500
    119 H92        85.4944   57.0841   36.5175 dc         1 CLA      0.069500
    120 H91        85.6191   58.2224   37.8375 dc         1 CLA      0.069500
    121 H8         83.5582   57.2717   37.9149 dc         1 CLA      0.029300
    122 H72        83.0004   55.0232   38.4217 dc         1 CLA      0.044400
    123 H71        84.6501   54.5307   38.3751 dc         1 CLA      0.044400
    124 H62        84.8369   54.8468   35.9162 dc         1 CLA      0.015600
    125 H61        83.2513   55.6568   35.9250 dc         1 CLA      0.015600
    126 H52        83.8855   52.7058   36.8022 dc         1 CLA      0.033200
    127 H51        83.1856   53.2007   35.2768 dc         1 CLA      0.033200
    128 H43        81.7155   52.2169   38.5259 dc         1 CLA      0.037000
    129 H42        80.2839   51.9305   37.5009 dc         1 CLA      0.037000
    130 H41        81.8517   51.0839   37.2032 dc         1 CLA      0.037000
    131 H3A        78.6606   59.2156   36.7631 dc         1 CLA      0.041100
    132 H2A        77.7930   56.4492   36.6612 dc         1 CLA      0.083100
    133 H2         80.7895   55.0185   37.2101 da         1 CLA      0.180900
    134 H18        80.0566   60.0915   45.6015 dc         1 CLA     -0.003900
    135 H13        84.6042   56.9766   42.9167 dc         1 CLA      0.019700
    136 H12        79.4036   53.7454   34.9314 dc         1 CLA      0.120400
    137 H11        80.9341   54.2845   34.2750 dc         1 CLA      0.120400
    138 C1         67.3048   61.2610   50.5219 Z1         2 LUT      0.509236
    139 C2         65.9859   61.0294   51.2045 Z2         2 LUT     -0.434695
    140 C3         65.1063   62.2389   51.4187 Z3         2 LUT      0.437453
    141 O3         64.9904   62.5458   52.8052 S1         2 LUT     -0.547129
    142 C4         65.3698   63.3611   50.4703 Z4         2 LUT     -0.468603
    143 C5         66.0267   62.9402   49.2184 Z5         2 LUT      0.279246
    144 C6         66.9625   61.9522   49.2005 Z6         2 LUT     -0.305473
    145 C7         67.3876   61.3644   47.8927 Z7         2 LUT      0.069402
    146 C8         68.1180   61.9434   46.8684 Z8         2 LUT     -0.191631
    147 C9         68.7376   61.4509   45.6506 Z9         2 LUT      0.196698
    148 C10        69.7183   62.3085   45.1491 Y1         2 LUT     -0.208611
    149 C11        70.4707   62.1781   43.9013 Y2         2 LUT      0.030784
    150 C12        71.5313   63.0248   43.5809 Y3         2 LUT     -0.220316
    151 C13        72.3934   62.9197   42.4118 Y4         2 LUT      0.215937
    152 C14        73.4678   63.6863   42.3811 Y5         2 LUT     -0.185793
    153 C15        74.6227   63.7347   41.5443 Y6         2 LUT     -0.057835
    154 C16        68.0326   59.9069   50.3166 Y7         2 LUT     -0.405615
    155 C17        68.1623   62.1529   51.4362 Y7         2 LUT     -0.405615
    156 C18        65.4020   63.6524   48.0507 Y9         2 LUT     -0.369639
    157 C19        68.3362   60.1062   45.0670 W1         2 LUT     -0.333362
    158 C20        71.9313   62.0176   41.2617 W2         2 LUT     -0.323439
    159 C21        86.2754   64.8206   35.4603 Z1         2 LUT      0.406104
    160 C22        87.1841   64.6097   34.2005 Z2         2 LUT     -0.404965
    161 C23        87.2599   65.7472   33.1810 Z3         2 LUT      0.391255
    162 O23        87.9659   65.2419   32.0678 S1         2 LUT     -0.528210
    163 C24        85.7973   66.3404   33.0063 W6         2 LUT     -0.258361
    164 C25        84.7593   66.1480   33.7971 Z5         2 LUT      0.133546
    165 C26        84.7361   65.2516   35.0128 W8         2 LUT     -0.147008
    166 C27        83.9505   65.7181   36.1591 Z7         2 LUT      0.023843
    167 C28        83.0075   65.0579   36.7995 Z8         2 LUT     -0.216987
    168 C29        82.1685   65.5573   37.8991 Z9         2 LUT      0.206524
    169 C30        81.0352   64.9753   38.2869 Y1         2 LUT     -0.215556
    170 C31        80.0733   65.3985   39.3608 Y2         2 LUT      0.025142
    171 C32        78.9400   64.8356   39.7226 Y3         2 LUT     -0.212209
    172 C33        78.0373   65.2118   40.7898 Y4         2 LUT      0.240937
    173 C34        76.9056   64.4369   40.8801 Y5         2 LUT     -0.218862
    174 C35        75.7743   64.5771   41.6651 Y6         2 LUT     -0.023547
    175 C36        86.8377   65.9040   36.4598 Y7         2 LUT     -0.393485
    176 C37        86.3297   63.3929   36.1026 Y7         2 LUT     -0.393485
    177 C38        83.3852   66.7420   33.3354 Y9         2 LUT     -0.387526
    178 C39        82.7169   66.8313   38.5086 W1         2 LUT     -0.322618
    179 C40        78.3435   66.5021   41.5858 W2         2 LUT     -0.358472
    180 H403       77.4429   66.9839   41.9784 R7         2 LUT      0.097720
    181 H402       78.9613   66.2565   42.4985 R7         2 LUT      0.097720
    182 H401       78.9530   67.2298   41.0948 R7         2 LUT      0.097720
    183 H393       83.7713   66.7108   38.8102 R4         2 LUT      0.082505
    184 H392       82.6933   67.7308   37.8933 R4         2 LUT      0.082505
    185 H391       82.2543   67.0478   39.4689 R4         2 LUT      0.082505
    186 H383       83.1232   67.5520   34.0471 R1         2 LUT      0.104030
    187 H382       83.4270   67.2183   32.3218 R1         2 LUT      0.104030
    188 H381       82.7200   65.9175   33.4593 R1         2 LUT      0.104030
    189 H373       85.7145   63.2770   36.9842 T4         2 LUT      0.089537
    190 H372       86.0690   62.5569   35.4778 T4         2 LUT      0.089537
    191 H371       87.2688   62.9939   36.5493 T4         2 LUT      0.089537
    192 H363       86.6408   66.9324   36.1851 T4         2 LUT      0.089537
    193 H362       86.5140   65.6765   37.4992 T4         2 LUT      0.089537
    194 H361       87.9333   65.7968   36.5921 T4         2 LUT      0.089537
    195 H222       88.1757   64.4179   34.6865 U2         2 LUT      0.127376
    196 H221       86.8864   63.6406   33.7309 U2         2 LUT      0.127376
    197 H203       71.0386   62.3765   40.8772 R7         2 LUT      0.087068
    198 H202       72.7288   61.9180   40.4696 R7         2 LUT      0.087068
    199 H201       71.6282   61.0417   41.5782 R7         2 LUT      0.087068
    200 H193       67.2704   60.1141   44.8603 R4         2 LUT      0.089716
    201 H192       68.7533   59.9947   44.1211 R4         2 LUT      0.089716
    202 H191       68.6205   59.2203   45.6270 R4         2 LUT      0.089716
    203 H183       65.7419   64.7021   47.8047 R1         2 LUT      0.094572
    204 H182       65.5809   63.0384   47.1145 R1         2 LUT      0.094572
    205 H181       64.3203   63.6359   48.1179 R1         2 LUT      0.094572
    206 H173       68.1155   61.8432   52.4897 T4         2 LUT      0.093752
    207 H172       69.2404   61.9264   51.2834 T4         2 LUT      0.093752
    208 H171       67.9061   63.1333   51.2450 T4         2 LUT      0.093752
    209 H163       68.4595   59.5636   51.2897 T4         2 LUT      0.093752
    210 H162       67.3482   59.0701   49.9498 T4         2 LUT      0.093752
    211 H161       68.9425   59.9095   49.6596 T4         2 LUT      0.093752
    212 HO3        65.6774   63.0446   53.2005 Q1         2 LUT      0.300121
    213 H8         68.3225   62.9954   47.1095 U7         2 LUT      0.080784
    214 H7         67.2216   60.2980   47.9288 U6         2 LUT      0.042190
    215 H42        64.5554   64.0342   50.4345 U5         2 LUT      0.145166
    216 H41        66.0996   64.1373   50.7997 U5         2 LUT      0.145166
    217 H35        75.7597   65.2074   42.5484 T3         2 LUT      0.077919
    218 H34        76.7665   63.6392   40.1240 T2         2 LUT      0.073626
    219 H32        78.7261   63.9904   39.1051 T1         2 LUT      0.092510
    220 H31        80.4333   66.1666   39.9726 U9         2 LUT      0.070048
    221 H30        80.6391   64.0826   37.6892 U8         2 LUT      0.085442
    222 H3         64.0678   61.8100   51.2411 U3         2 LUT     -0.031596
    223 H28        82.7138   64.1171   36.4029 U7         2 LUT      0.084728
    224 H27        84.3857   66.6792   36.4292 U6         2 LUT      0.087291
    225 H26        84.3682   64.2753   34.6280 Q6         2 LUT      0.075325
    226 H24        85.5818   67.0049   32.2463 Q5         2 LUT      0.094482
    227 H23        87.8368   66.5864   33.5867 U3         2 LUT     -0.024869
    228 H22        65.4254   60.3027   50.6460 U2         2 LUT      0.127376
    229 H21        66.1873   60.5386   52.1857 U2         2 LUT      0.127376
    230 H15        74.5552   62.9885   40.7520 T3         2 LUT      0.093200
    231 H14        73.6775   64.2472   43.3351 T2         2 LUT      0.068865
    232 H12        71.6829   63.8593   44.2358 T1         2 LUT      0.095507
    233 H11        70.2176   61.3258   43.2282 U9         2 LUT      0.068930
    234 H10        69.9249   63.2147   45.6908 U8         2 LUT      0.083911
    235 H1         87.4620   64.6871   31.5046 Q1         2 LUT      0.297311
@<TRIPOS>BOND
    1     6     1 1
    2     7     2 1
    3     8     3 1
    4     9     4 1
    5    11     4 1
    6    12     6 1
    7    13     9 1
    8    16     9 1
    9    25     5 1
   10    25    16 1
   11    26    10 1
   12    26    17 1
   13    27    18 1
   14    28    14 1
   15    28    19 1
   16    29    12 1
   17    30    13 1
   18    31    24 1
   19    32     1 1
   20    32    25 1
   21    33    21 1
   22    33    26 1
   23    34    22 1
   24    34    27 1
   25    35    23 1
   26    35    28 1
   27    36    12 1
   28    36    24 1
   29    37    13 1
   30    37    15 1
   31    38    31 1
   32    39    20 1
   33    39    32 1
   34    40     2 1
   35    40    33 1
   36    41     3 1
   37    41    34 1
   38    42     4 1
   39    42    35 1
   40    43    38 1
   41    44     5 1
   42    44    17 1
   43    44    39 1
   44    45    10 1
   45    45    18 1
   46    45    40 1
   47    46    19 1
   48    46    41 1
   49    47    14 1
   50    47    16 1
   51    47    42 1
   52    48    38 1
   53    49    48 1
   54    50    49 1
   55    51    50 1
   56    52    51 1
   57    53    51 1
   58    54    53 1
   59    55    54 1
   60    56    55 1
   61    57    56 1
   62    58    56 1
   63    59    58 1
   64    60    59 1
   65    61    60 1
   66    62    61 1
   67    63    61 1
   68    64    27 1
   69    64    46 1
   70    65     5 1
   71    65    10 1
   72    65    64 1
   73    65    14 1
   74    66    23 1
   75    67    23 1
   76    68    23 1
   77    69    22 1
   78    70    22 1
   79    71    22 1
   80    72    21 1
   81    73    21 1
   82    74    21 1
   83    75    20 1
   84    76    20 1
   85    77    20 1
   86    78    15 1
   87    79    15 1
   88    80    15 1
   89    81     8 1
   90    82     8 1
   91    83     8 1
   92    84     7 1
   93    85     7 1
   94    86     6 1
   95    87     6 1
   96    88     3 1
   97    89     3 1
   98    90     1 1
   99    91     1 1
  100    92    63 1
  101    93    63 1
  102    94    63 1
  103    95    62 1
  104    96    62 1
  105    97    62 1
  106    98    60 1
  107    99    60 1
  108   100    59 1
  109   101    59 1
  110   102    58 1
  111   103    58 1
  112   104    57 1
  113   105    57 1
  114   106    57 1
  115   107    55 1
  116   108    55 1
  117   109    54 1
  118   110    54 1
  119   111    53 1
  120   112    53 1
  121   113    19 1
  122   114    18 1
  123   115    17 1
  124   116     9 1
  125   117     2 1
  126   118    52 1
  127   119    52 1
  128   120    52 1
  129   121    51 1
  130   122    50 1
  131   123    50 1
  132   124    49 1
  133   125    49 1
  134   126    48 1
  135   127    48 1
  136   128    43 1
  137   129    43 1
  138   130    43 1
  139   131    39 1
  140   132    32 1
  141   133    31 1
  142   134    61 1
  143   135    56 1
  144   136    24 1
  145   137    24 1
  146   139   138 1
  147   140   139 1
  148   141   140 1
  149   142   140 1
  150   143   142 1
  151   144   138 1
  152   144   143 1
  153   145   144 1
  154   146   145 1
  155   147   146 1
  156   148   147 1
  157   149   148 1
  158   150   149 1
  159   151   150 1
  160   152   151 1
  161   153   152 1
  162   154   138 1
  163   155   138 1
  164   156   143 1
  165   157   147 1
  166   158   151 1
  167   160   159 1
  168   161   160 1
  169   162   161 1
  170   163   161 1
  171   164   163 1
  172   165   159 1
  173   165   164 1
  174   166   165 1
  175   167   166 1
  176   168   167 1
  177   169   168 1
  178   170   169 1
  179   171   170 1
  180   172   171 1
  181   173   172 1
  182   174   153 1
  183   174   173 1
  184   175   159 1
  185   176   159 1
  186   177   164 1
  187   178   168 1
  188   179   172 1
  189   180   179 1
  190   181   179 1
  191   182   179 1
  192   183   178 1
  193   184   178 1
  194   185   178 1
  195   186   177 1
  196   187   177 1
  197   188   177 1
  198   189   176 1
  199   190   176 1
  200   191   176 1
  201   192   175 1
  202   193   175 1
  203   194   175 1
  204   195   160 1
  205   196   160 1
  206   197   158 1
  207   198   158 1
  208   199   158 1
  209   200   157 1
  210   201   157 1
  211   202   157 1
  212   203   156 1
  213   204   156 1
  214   205   156 1
  215   206   155 1
  216   207   155 1
  217   208   155 1
  218   209   154 1
  219   210   154 1
  220   211   154 1
  221   212   141 1
  222   213   146 1
  223   214   145 1
  224   215   142 1
  225   216   142 1
  226   217   174 1
  227   218   173 1
  228   219   171 1
  229   220   170 1
  230   221   169 1
  231   222   140 1
  232   223   167 1
  233   224   166 1
  234   225   165 1
  235   226   163 1
  236   227   161 1
  237   228   139 1
  238   229   139 1
  239   230   153 1
  240   231   152 1
  241   232   150 1
  242   233   149 1
  243   234   148 1
  244   235   162 1
  245   65    153 1
  246   65    174 1
@<TRIPOS>SUBSTRUCTURE
      1 CLA               1 ****               0 ****  **** 
      2 LUT             138 ****               0 ****  **** 
