@<TRIPOS>MOLECULE
Cpptraj generated mol2 file.
  235   246     2     0     0
SMALL
USER_CHARGES


@<TRIPOS>ATOM
      1 CAA        76.7621   57.6698   33.1155 a2         1 CLA     -0.055900
      2 CAB        76.9223   61.1856   42.3554 c8         1 CLA     -0.148500
      3 CAC        69.8788   57.1363   41.7658 a2         1 CLA     -0.012600
      4 CAD        72.5432   55.0433   34.2304 ck         1 CLA      0.398800
      5 NA         75.8222   57.9799   36.6723 ns         1 CLA     -0.225500
      6 CBA        78.0925   57.4616   32.3241 a2         1 CLA     -0.135000
      7 CBB        78.0908   61.3318   43.0052 c0         1 CLA     -0.395200
      8 CBC        69.8678   55.6419   41.9571 a3         1 CLA     -0.037700
      9 CBD        73.9873   55.7173   33.8883 a1         1 CLA     -0.053900
     10 NB         75.7747   59.3143   39.2733 nm         1 CLA     -0.295700
     11 OBD        71.8819   54.2252   33.5662 o2         1 CLA     -0.494600
     12 CGA        78.5700   56.0165   31.9233 c4         1 CLA      0.827000
     13 CGD        74.9575   54.6533   33.4419 c4         1 CLA      0.655300
     14 ND         73.0205   56.9612   37.2918 nm         1 CLA     -0.291600
     15 CED        75.8265   52.4551   33.9542 a3         1 CLA      0.005400
     16 CHA        74.4715   56.4663   35.1721 cs         1 CLA     -0.123800
     17 CHB        77.6712   59.3987   37.7044 aa         1 CLA     -0.291900
     18 CHC        74.4136   59.4919   41.3361 aa         1 CLA     -0.090400
     19 CHD        71.2825   56.6747   38.9415 aa         1 CLA     -0.052000
     20 CMA        79.1936   57.3903   35.8885 a3         1 CLA     -0.230700
     21 CMB        79.0519   61.1442   39.8750 a3         1 CLA     -0.180800
     22 CMC        72.2986   58.5739   43.4657 a3         1 CLA     -0.134000
     23 CMD        69.9587   54.7678   36.5950 a3         1 CLA     -0.141100
     24 C1         79.1631   53.9751   33.0076 a2         1 CLA      0.023000
     25 C1A        75.6424   57.2296   35.4976 ac         1 CLA     -0.015100
     26 C1B        77.0726   59.6911   38.9285 cr         1 CLA      0.054700
     27 C1C        73.2533   58.7694   41.0232 cn         1 CLA     -0.005600
     28 C1D        71.8447   56.3548   37.7049 ap         1 CLA     -0.047300
     29 O1A        78.4543   55.3863   30.8776 o2         1 CLA     -0.610800
     30 O1D        75.6812   54.5448   32.4604 o2         1 CLA     -0.558200
     31 C2         79.5224   53.3961   34.4055 c8         1 CLA     -0.325100
     32 C2A        76.9088   57.2232   34.6571 a1         1 CLA      0.098600
     33 C2B        77.6778   60.5049   39.9927 cb         1 CLA      0.088500
     34 C2C        72.2317   58.3905   41.9559 cb         1 CLA      0.053700
     35 C2D        71.2754   55.5581   36.6488 cb         1 CLA      0.058900
     36 O2A        79.0252   55.4216   33.0883 o1         1 CLA     -0.437200
     37 O2D        75.0643   53.6318   34.3566 o1         1 CLA     -0.357600
     38 C3         80.3533   52.3966   34.7085 c5         1 CLA      0.031200
     39 C3A        77.8790   58.1055   35.4955 a1         1 CLA      0.166800
     40 C3B        76.8032   60.4771   41.0891 cb         1 CLA      0.035000
     41 C3C        71.1867   57.7501   41.1988 cb         1 CLA     -0.089900
     42 C3D        72.2558   55.6180   35.5878 cb         1 CLA     -0.035900
     43 C4         79.8766   50.9310   34.8798 a3         1 CLA     -0.053300
     44 C4A        77.0634   58.5678   36.6680 ac         1 CLA      0.001800
     45 C4B        75.5729   59.7910   40.5744 cn         1 CLA     -0.020900
     46 C4C        71.7937   57.5119   39.9521 cr         1 CLA     -0.044400
     47 C4D        73.3496   56.4108   36.0595 c6         1 CLA     -0.046000
     48 C5         81.8572   52.5786   34.5924 a2         1 CLA     -0.070400
     49 C6         82.3312   54.0854   34.9042 a2         1 CLA      0.043900
     50 C7         82.3266   54.2808   36.4204 a2         1 CLA     -0.150000
     51 C8         82.6734   55.7201   36.8048 a1         1 CLA      0.064200
     52 C9         84.0180   56.2737   36.3088 a3         1 CLA     -0.259300
     53 C10        82.6432   55.8817   38.4079 a2         1 CLA     -0.071900
     54 C11        81.2696   56.1987   38.9065 a2         1 CLA      0.014500
     55 C12        81.3132   56.7860   40.3286 a2         1 CLA     -0.112100
     56 C13        80.1679   56.4467   41.2664 a1         1 CLA      0.089200
     57 C14        78.9903   57.4067   40.8984 a3         1 CLA     -0.239100
     58 C15        80.6324   56.5533   42.7548 a2         1 CLA     -0.102200
     59 C16        81.2301   57.8807   43.1637 a2         1 CLA      0.023900
     60 C17        81.2988   58.0903   44.6394 a2         1 CLA     -0.105700
     61 C18        81.7966   59.5383   45.1199 a1         1 CLA      0.206800
     62 C19        83.1550   59.9643   44.6443 a3         1 CLA     -0.280100
     63 C20        80.7812   60.7057   44.9797 a3         1 CLA     -0.280100
     64 NC         72.9597   58.2866   39.8136 nx         1 CLA     -0.309200
     65 MG         74.3895   58.2102   38.2308 mg         1 CLA      0.895000
     66 HMD3       69.7177   54.4285   37.5656 dc         1 CLA      0.064300
     67 HMD2       69.2257   55.5522   36.1668 dc         1 CLA      0.064300
     68 HMD1       69.9561   53.9158   35.9354 dc         1 CLA      0.064300
     69 HMC3       71.5350   58.0602   44.0309 dc         1 CLA      0.052100
     70 HMC2       73.3057   58.2454   43.6793 dc         1 CLA      0.052100
     71 HMC1       72.2805   59.6548   43.7903 dc         1 CLA      0.052100
     72 HMB3       79.2273   61.5492   38.8499 dc         1 CLA      0.063600
     73 HMB2       79.2776   61.8595   40.6498 dc         1 CLA      0.063600
     74 HMB1       79.8227   60.3132   40.1409 dc         1 CLA      0.063600
     75 HMA3       79.7599   57.1203   34.9795 dc         1 CLA      0.058300
     76 HMA2       79.9349   58.0162   36.4560 dc         1 CLA      0.058300
     77 HMA1       79.0665   56.4760   36.5361 dc         1 CLA      0.058300
     78 HED3       76.8404   52.7395   33.9339 dc         1 CLA      0.079300
     79 HED2       75.7540   51.5917   34.5769 dc         1 CLA      0.079300
     80 HED1       75.5133   52.1743   32.9226 dc         1 CLA      0.079300
     81 HBC3       70.6804   55.3398   42.6100 dc         1 CLA      0.016300
     82 HBC2       68.9251   55.2815   42.3150 dc         1 CLA      0.016300
     83 HBC1       70.0097   55.1858   40.9641 dc         1 CLA      0.016300
     84 HBB2       78.0300   61.8621   43.9573 da         1 CLA      0.183000
     85 HBB1       79.0885   60.8308   42.8002 da         1 CLA      0.183000
     86 HBA2       78.0053   57.9532   31.3323 dc         1 CLA      0.029400
     87 HBA1       78.9109   57.8812   32.9128 dc         1 CLA      0.029400
     88 HAC2       69.5997   57.5950   42.6782 dc         1 CLA      0.029300
     89 HAC1       69.0298   57.2447   41.0870 dc         1 CLA      0.029300
     90 HAA2       75.9483   56.9920   32.7843 dc         1 CLA      0.028700
     91 HAA1       76.4693   58.6904   33.0846 dc         1 CLA      0.028700
     92 H203       81.1369   61.5533   45.5427 dc         1 CLA      0.065600
     93 H202       80.7111   60.9839   44.0145 dc         1 CLA      0.065600
     94 H201       79.8291   60.3534   45.3901 dc         1 CLA      0.065600
     95 H193       83.0472   60.1209   43.6161 dc         1 CLA      0.065600
     96 H192       83.3491   60.8763   45.1515 dc         1 CLA      0.065600
     97 H191       83.9006   59.1764   44.6969 dc         1 CLA      0.065600
     98 H172       80.3152   57.9670   44.9085 dc         1 CLA      0.027600
     99 H171       81.8376   57.2781   45.1195 dc         1 CLA      0.027600
    100 H162       82.1912   57.7824   42.7674 dc         1 CLA      0.002900
    101 H161       80.7069   58.6870   42.6948 dc         1 CLA      0.002900
    102 H152       79.8471   56.3233   43.4932 dc         1 CLA      0.029100
    103 H151       81.3644   55.7509   43.0234 dc         1 CLA      0.029100
    104 H143       78.0344   57.0398   41.3484 dc         1 CLA      0.063600
    105 H142       79.1365   58.4375   41.1909 dc         1 CLA      0.063600
    106 H141       79.0207   57.2841   39.8003 dc         1 CLA      0.063600
    107 H122       82.0877   56.2676   40.8367 dc         1 CLA      0.032500
    108 H121       81.6852   57.8252   40.3495 dc         1 CLA      0.032500
    109 H112       80.9449   56.9392   38.1403 dc         1 CLA      0.006600
    110 H111       80.7173   55.3057   38.7246 dc         1 CLA      0.006600
    111 H102       83.0127   54.9525   38.7695 dc         1 CLA      0.024100
    112 H101       83.3773   56.6406   38.6970 dc         1 CLA      0.024100
    113 HHD        70.2910   56.2128   39.0528 da         1 CLA      0.174300
    114 HHC        74.4727   59.9805   42.3582 da         1 CLA      0.136800
    115 HHB        78.6428   59.8915   37.5689 da         1 CLA      0.138300
    116 HBD        73.7722   56.3210   33.0025 dc         1 CLA      0.107700
    117 HAB        75.9693   61.6268   42.7624 da         1 CLA      0.155200
    118 H93        84.0839   55.9624   35.2915 dc         1 CLA      0.069500
    119 H92        84.0396   57.3621   36.3239 dc         1 CLA      0.069500
    120 H91        84.9107   55.8787   36.7987 dc         1 CLA      0.069500
    121 H8         81.9452   56.3639   36.1901 dc         1 CLA      0.029300
    122 H72        81.2536   54.0081   36.7699 dc         1 CLA      0.044400
    123 H71        83.1205   53.6387   36.8196 dc         1 CLA      0.044400
    124 H62        83.3594   54.1472   34.5423 dc         1 CLA      0.015600
    125 H61        81.7518   54.8351   34.3604 dc         1 CLA      0.015600
    126 H52        82.4520   51.9792   35.2751 dc         1 CLA      0.033200
    127 H51        82.2129   52.2580   33.5750 dc         1 CLA      0.033200
    128 H43        78.8119   50.8149   34.6616 dc         1 CLA      0.037000
    129 H42        80.3525   50.3435   34.1614 dc         1 CLA      0.037000
    130 H41        79.9838   50.4933   35.9195 dc         1 CLA      0.037000
    131 H3A        78.2112   58.9799   34.8989 dc         1 CLA      0.041100
    132 H2A        77.2956   56.2329   34.5767 dc         1 CLA      0.083100
    133 H2         79.2142   54.0356   35.2506 da         1 CLA      0.180900
    134 H18        81.8331   59.3073   46.1505 dc         1 CLA     -0.003900
    135 H13        79.8514   55.3771   40.9812 dc         1 CLA      0.019700
    136 H12        78.3161   53.5103   32.5602 dc         1 CLA      0.120400
    137 H11        79.9865   53.9237   32.3662 dc         1 CLA      0.120400
    138 C1         67.0055   60.9580   49.4315 Z1         2 LUT      0.509236
    139 C2         67.2033   62.1667   50.2478 Z2         2 LUT     -0.434695
    140 C3         66.0335   63.0238   50.5058 Z3         2 LUT      0.437453
    141 O3         66.6056   64.3097   50.8840 S1         2 LUT     -0.547129
    142 C4         65.1584   63.0475   49.2315 Z4         2 LUT     -0.468603
    143 C5         65.7072   62.4330   47.9640 Z5         2 LUT      0.279246
    144 C6         66.4762   61.3544   48.0652 Z6         2 LUT     -0.305473
    145 C7         67.1658   60.8458   46.8639 Z7         2 LUT      0.069402
    146 C8         68.0989   61.5801   46.1715 Z8         2 LUT     -0.191631
    147 C9         68.6447   61.3438   44.8222 Z9         2 LUT      0.196698
    148 C10        69.5688   62.3103   44.3254 Y1         2 LUT     -0.208611
    149 C11        70.2289   62.1627   43.1086 Y2         2 LUT      0.030784
    150 C12        71.3800   62.8404   42.7634 Y3         2 LUT     -0.220316
    151 C13        72.0980   62.5999   41.4981 Y4         2 LUT      0.215937
    152 C14        73.3312   63.2223   41.4435 Y5         2 LUT     -0.185793
    153 C15        74.4882   63.1252   40.6029 Y6         2 LUT     -0.057835
    154 C16        65.9181   60.0888   50.2451 Y7         2 LUT     -0.405615
    155 C17        68.3312   60.1500   49.5402 Y7         2 LUT     -0.405615
    156 C18        65.6005   63.3818   46.8030 Y9         2 LUT     -0.369639
    157 C19        68.3736   59.9565   44.2920 W1         2 LUT     -0.333362
    158 C20        71.4716   61.9145   40.3678 W2         2 LUT     -0.323439
    159 C21        86.1290   64.5805   34.5087 Z1         2 LUT      0.406104
    160 C22        87.0153   64.1785   33.2752 Z2         2 LUT     -0.404965
    161 C23        87.1627   65.2620   32.2123 Z3         2 LUT      0.391255
    162 O23        87.8580   64.7097   31.0323 S1         2 LUT     -0.528210
    163 C24        85.8303   65.9682   31.9790 W6         2 LUT     -0.258361
    164 C25        84.7681   65.9550   32.7163 Z5         2 LUT      0.133546
    165 C26        84.7176   65.0463   34.0006 W8         2 LUT     -0.147008
    166 C27        83.8571   65.6171   35.1407 Z7         2 LUT      0.023843
    167 C28        82.6132   65.1374   35.6153 Z8         2 LUT     -0.216987
    168 C29        81.8492   65.6020   36.7359 Z9         2 LUT      0.206524
    169 C30        80.6960   64.9504   37.0800 Y1         2 LUT     -0.215556
    170 C31        79.8563   65.0306   38.2756 Y2         2 LUT      0.025142
    171 C32        78.6569   64.4062   38.5793 Y3         2 LUT     -0.212209
    172 C33        77.8671   64.5017   39.7379 Y4         2 LUT      0.240937
    173 C34        76.7218   63.7090   39.8385 Y5         2 LUT     -0.218862
    174 C35        75.6830   63.7996   40.7833 Y6         2 LUT     -0.023547
    175 C36        87.0262   65.6096   35.2067 Y7         2 LUT     -0.393485
    176 C37        86.0271   63.3325   35.5209 Y7         2 LUT     -0.393485
    177 C38        83.4636   66.7253   32.4149 Y9         2 LUT     -0.387526
    178 C39        82.3098   66.6902   37.5728 W1         2 LUT     -0.322618
    179 C40        78.4510   65.2398   40.8942 W2         2 LUT     -0.358472
    180 H403       78.2020   66.3089   40.9673 R7         2 LUT      0.097720
    181 H402       78.0494   64.8835   41.8293 R7         2 LUT      0.097720
    182 H401       79.5003   65.1872   41.0255 R7         2 LUT      0.097720
    183 H393       83.1300   66.3225   38.2804 R4         2 LUT      0.082505
    184 H392       82.6705   67.5320   36.9951 R4         2 LUT      0.082505
    185 H391       81.5139   67.0316   38.2384 R4         2 LUT      0.082505
    186 H383       83.0052   67.2258   33.2873 R1         2 LUT      0.104030
    187 H382       83.7578   67.4546   31.6222 R1         2 LUT      0.104030
    188 H381       82.7321   66.1223   31.8551 R1         2 LUT      0.104030
    189 H373       85.3800   62.5574   35.1779 T4         2 LUT      0.089537
    190 H372       87.0062   62.8605   35.6867 T4         2 LUT      0.089537
    191 H371       85.5491   63.6555   36.4149 T4         2 LUT      0.089537
    192 H363       88.0924   65.2747   35.3618 T4         2 LUT      0.089537
    193 H362       87.0983   66.4930   34.6323 T4         2 LUT      0.089537
    194 H361       86.6377   65.7057   36.2148 T4         2 LUT      0.089537
    195 H222       88.0586   63.8903   33.4512 U2         2 LUT      0.127376
    196 H221       86.3627   63.3614   32.9267 U2         2 LUT      0.127376
    197 H203       71.0635   60.9087   40.5824 R7         2 LUT      0.087068
    198 H202       70.7976   62.5966   39.8611 R7         2 LUT      0.087068
    199 H201       72.2751   61.6398   39.6709 R7         2 LUT      0.087068
    200 H193       68.3705   59.2316   45.0857 R4         2 LUT      0.089716
    201 H192       67.3607   60.0121   43.8818 R4         2 LUT      0.089716
    202 H191       69.1055   59.5602   43.6003 R4         2 LUT      0.089716
    203 H183       64.6742   63.9335   46.7860 R1         2 LUT      0.094572
    204 H182       66.4227   64.1298   46.8322 R1         2 LUT      0.094572
    205 H181       65.6610   62.8704   45.8125 R1         2 LUT      0.094572
    206 H173       69.1450   60.7045   49.0255 T4         2 LUT      0.093752
    207 H172       68.6901   60.0718   50.5563 T4         2 LUT      0.093752
    208 H171       68.2264   59.1700   49.0455 T4         2 LUT      0.093752
    209 H163       66.2194   59.6402   51.2192 T4         2 LUT      0.093752
    210 H162       64.9926   60.5877   50.4621 T4         2 LUT      0.093752
    211 H161       65.6162   59.2933   49.5650 T4         2 LUT      0.093752
    212 HO3        66.0178   64.7273   51.5533 Q1         2 LUT      0.300121
    213 H8         68.3562   62.5280   46.5923 U7         2 LUT      0.080784
    214 H7         67.0230   59.8125   46.4259 U6         2 LUT      0.042190
    215 H42        64.2278   62.5436   49.4078 U5         2 LUT      0.145166
    216 H41        64.8659   64.0204   49.0537 U5         2 LUT      0.145166
    217 H35        75.9107   64.4052   41.6448 T3         2 LUT      0.077919
    218 H34        76.5264   62.9970   39.0184 T2         2 LUT      0.073626
    219 H32        78.2970   63.8096   37.8075 T1         2 LUT      0.092510
    220 H31        80.2307   65.6422   39.0709 U9         2 LUT      0.070048
    221 H30        80.3390   64.2029   36.3848 U8         2 LUT      0.085442
    222 H3         65.6015   62.3733   51.2366 U3         2 LUT     -0.031596
    223 H28        82.1470   64.3654   35.0649 U7         2 LUT      0.084728
    224 H27        84.3460   66.4252   35.6753 U6         2 LUT      0.087291
    225 H26        84.2087   64.1683   33.5311 Q6         2 LUT      0.075325
    226 H24        85.7530   66.6138   31.0624 Q5         2 LUT      0.094482
    227 H23        87.9506   65.9982   32.4429 U3         2 LUT     -0.024869
    228 H22        67.4371   61.8189   51.2595 U2         2 LUT      0.127376
    229 H21        68.0672   62.7533   49.9480 U2         2 LUT      0.127376
    230 H15        74.3349   62.4688   39.7529 T3         2 LUT      0.093200
    231 H14        73.6517   63.6934   42.3058 T2         2 LUT      0.068865
    232 H12        71.7959   63.5353   43.4378 T1         2 LUT      0.095507
    233 H11        69.9194   61.3769   42.3967 U9         2 LUT      0.068930
    234 H10        69.8491   63.1320   44.9616 U8         2 LUT      0.083911
    235 H1         87.2335   64.2875   30.4021 Q1         2 LUT      0.297311
@<TRIPOS>BOND
    1     6     1 1
    2     7     2 1
    3     8     3 1
    4     9     4 1
    5    11     4 1
    6    12     6 1
    7    13     9 1
    8    16     9 1
    9    25     5 1
   10    25    16 1
   11    26    10 1
   12    26    17 1
   13    27    18 1
   14    28    14 1
   15    28    19 1
   16    29    12 1
   17    30    13 1
   18    31    24 1
   19    32     1 1
   20    32    25 1
   21    33    21 1
   22    33    26 1
   23    34    22 1
   24    34    27 1
   25    35    23 1
   26    35    28 1
   27    36    12 1
   28    36    24 1
   29    37    13 1
   30    37    15 1
   31    38    31 1
   32    39    20 1
   33    39    32 1
   34    40     2 1
   35    40    33 1
   36    41     3 1
   37    41    34 1
   38    42     4 1
   39    42    35 1
   40    43    38 1
   41    44     5 1
   42    44    17 1
   43    44    39 1
   44    45    10 1
   45    45    18 1
   46    45    40 1
   47    46    19 1
   48    46    41 1
   49    47    14 1
   50    47    16 1
   51    47    42 1
   52    48    38 1
   53    49    48 1
   54    50    49 1
   55    51    50 1
   56    52    51 1
   57    53    51 1
   58    54    53 1
   59    55    54 1
   60    56    55 1
   61    57    56 1
   62    58    56 1
   63    59    58 1
   64    60    59 1
   65    61    60 1
   66    62    61 1
   67    63    61 1
   68    64    27 1
   69    64    46 1
   70    65     5 1
   71    65    10 1
   72    65    64 1
   73    65    14 1
   74    66    23 1
   75    67    23 1
   76    68    23 1
   77    69    22 1
   78    70    22 1
   79    71    22 1
   80    72    21 1
   81    73    21 1
   82    74    21 1
   83    75    20 1
   84    76    20 1
   85    77    20 1
   86    78    15 1
   87    79    15 1
   88    80    15 1
   89    81     8 1
   90    82     8 1
   91    83     8 1
   92    84     7 1
   93    85     7 1
   94    86     6 1
   95    87     6 1
   96    88     3 1
   97    89     3 1
   98    90     1 1
   99    91     1 1
  100    92    63 1
  101    93    63 1
  102    94    63 1
  103    95    62 1
  104    96    62 1
  105    97    62 1
  106    98    60 1
  107    99    60 1
  108   100    59 1
  109   101    59 1
  110   102    58 1
  111   103    58 1
  112   104    57 1
  113   105    57 1
  114   106    57 1
  115   107    55 1
  116   108    55 1
  117   109    54 1
  118   110    54 1
  119   111    53 1
  120   112    53 1
  121   113    19 1
  122   114    18 1
  123   115    17 1
  124   116     9 1
  125   117     2 1
  126   118    52 1
  127   119    52 1
  128   120    52 1
  129   121    51 1
  130   122    50 1
  131   123    50 1
  132   124    49 1
  133   125    49 1
  134   126    48 1
  135   127    48 1
  136   128    43 1
  137   129    43 1
  138   130    43 1
  139   131    39 1
  140   132    32 1
  141   133    31 1
  142   134    61 1
  143   135    56 1
  144   136    24 1
  145   137    24 1
  146   139   138 1
  147   140   139 1
  148   141   140 1
  149   142   140 1
  150   143   142 1
  151   144   138 1
  152   144   143 1
  153   145   144 1
  154   146   145 1
  155   147   146 1
  156   148   147 1
  157   149   148 1
  158   150   149 1
  159   151   150 1
  160   152   151 1
  161   153   152 1
  162   154   138 1
  163   155   138 1
  164   156   143 1
  165   157   147 1
  166   158   151 1
  167   160   159 1
  168   161   160 1
  169   162   161 1
  170   163   161 1
  171   164   163 1
  172   165   159 1
  173   165   164 1
  174   166   165 1
  175   167   166 1
  176   168   167 1
  177   169   168 1
  178   170   169 1
  179   171   170 1
  180   172   171 1
  181   173   172 1
  182   174   153 1
  183   174   173 1
  184   175   159 1
  185   176   159 1
  186   177   164 1
  187   178   168 1
  188   179   172 1
  189   180   179 1
  190   181   179 1
  191   182   179 1
  192   183   178 1
  193   184   178 1
  194   185   178 1
  195   186   177 1
  196   187   177 1
  197   188   177 1
  198   189   176 1
  199   190   176 1
  200   191   176 1
  201   192   175 1
  202   193   175 1
  203   194   175 1
  204   195   160 1
  205   196   160 1
  206   197   158 1
  207   198   158 1
  208   199   158 1
  209   200   157 1
  210   201   157 1
  211   202   157 1
  212   203   156 1
  213   204   156 1
  214   205   156 1
  215   206   155 1
  216   207   155 1
  217   208   155 1
  218   209   154 1
  219   210   154 1
  220   211   154 1
  221   212   141 1
  222   213   146 1
  223   214   145 1
  224   215   142 1
  225   216   142 1
  226   217   174 1
  227   218   173 1
  228   219   171 1
  229   220   170 1
  230   221   169 1
  231   222   140 1
  232   223   167 1
  233   224   166 1
  234   225   165 1
  235   226   163 1
  236   227   161 1
  237   228   139 1
  238   229   139 1
  239   230   153 1
  240   231   152 1
  241   232   150 1
  242   233   149 1
  243   234   148 1
  244   235   162 1
  245   65    153 1
  246   65    174 1
@<TRIPOS>SUBSTRUCTURE
      1 CLA               1 ****               0 ****  **** 
      2 LUT             138 ****               0 ****  **** 
