@<TRIPOS>MOLECULE
Cpptraj generated mol2 file.
  235   246     2     0     0
SMALL
USER_CHARGES


@<TRIPOS>ATOM
      1 CAA        80.0960   57.7744   34.5918 a2         1 CLA     -0.055900
      2 CAB        80.1741   62.1125   43.3243 c8         1 CLA     -0.148500
      3 CAC        73.4358   57.8302   43.3244 a2         1 CLA     -0.012600
      4 CAD        75.7873   55.5049   35.9512 ck         1 CLA      0.398800
      5 NA         79.0654   58.4616   37.8844 ns         1 CLA     -0.225500
      6 CBA        81.3636   57.6312   33.7380 a2         1 CLA     -0.135000
      7 CBB        81.2856   62.0514   44.0653 c0         1 CLA     -0.395200
      8 CBC        73.4530   56.2929   43.2944 a3         1 CLA     -0.037700
      9 CBD        77.2670   55.9380   35.5784 a1         1 CLA     -0.053900
     10 NB         79.0271   60.0843   40.4874 nm         1 CLA     -0.295700
     11 OBD        75.1880   54.6147   35.3412 o2         1 CLA     -0.494600
     12 CGA        81.7323   56.2571   33.3824 c4         1 CLA      0.827000
     13 CGD        78.0908   54.6972   35.5033 c4         1 CLA      0.655300
     14 ND         76.2646   57.7104   38.6285 nm         1 CLA     -0.291600
     15 CED        78.3885   52.5355   36.6007 a3         1 CLA      0.005400
     16 CHA        77.6807   56.9758   36.6233 cs         1 CLA     -0.123800
     17 CHB        80.8424   59.8466   38.8724 aa         1 CLA     -0.291900
     18 CHC        77.6534   60.4361   42.5581 aa         1 CLA     -0.090400
     19 CHD        74.4367   57.5094   40.2587 aa         1 CLA     -0.052000
     20 CMA        82.5446   57.6174   37.5401 a3         1 CLA     -0.230700
     21 CMB        82.0767   62.2020   40.5312 a3         1 CLA     -0.180800
     22 CMC        75.4429   59.9776   44.7960 a3         1 CLA     -0.134000
     23 CMD        73.3270   55.3383   38.2856 a3         1 CLA     -0.141100
     24 C1         82.7825   54.2510   34.1565 a2         1 CLA      0.023000
     25 C1A        78.9209   57.6584   36.8090 ac         1 CLA     -0.015100
     26 C1B        80.2376   60.4247   40.0217 cr         1 CLA      0.054700
     27 C1C        76.5390   59.6412   42.3526 cn         1 CLA     -0.005600
     28 C1D        75.0228   57.2924   39.0425 ap         1 CLA     -0.047300
     29 O1A        81.6912   55.7197   32.2535 o2         1 CLA     -0.610800
     30 O1D        78.9875   54.4556   34.6873 o2         1 CLA     -0.558200
     31 C2         83.6258   53.7133   35.3355 c8         1 CLA     -0.325100
     32 C2A        80.2894   57.3502   36.0773 a1         1 CLA      0.098600
     33 C2B        80.7403   61.5200   40.8461 cb         1 CLA      0.088500
     34 C2C        75.4510   59.4352   43.3361 cb         1 CLA      0.053700
     35 C2D        74.5001   56.3357   38.1113 cb         1 CLA      0.058900
     36 O2A        82.2750   55.5836   34.4469 o1         1 CLA     -0.437200
     37 O2D        77.8071   53.8699   36.5681 o1         1 CLA     -0.357600
     38 C3         84.9569   53.5688   35.1874 c5         1 CLA      0.031200
     39 C3A        81.2782   58.2402   36.8888 a1         1 CLA      0.166800
     40 C3B        79.9450   61.5266   42.0279 cb         1 CLA      0.035000
     41 C3C        74.5992   58.4806   42.7297 cb         1 CLA     -0.089900
     42 C3D        75.4694   56.2159   37.1354 cb         1 CLA     -0.035900
     43 C4         85.6823   52.2985   34.7347 a3         1 CLA     -0.053300
     44 C4A        80.3650   58.9212   37.9372 ac         1 CLA      0.001800
     45 C4B        78.8058   60.6652   41.7432 cn         1 CLA     -0.020900
     46 C4C        75.0774   58.2100   41.3794 cr         1 CLA     -0.044400
     47 C4D        76.5424   57.0618   37.4851 c6         1 CLA     -0.046000
     48 C5         85.8388   54.7263   35.5705 a2         1 CLA     -0.070400
     49 C6         86.0672   54.7299   37.1104 a2         1 CLA      0.043900
     50 C7         87.0304   55.8345   37.5643 a2         1 CLA     -0.150000
     51 C8         87.2274   56.0817   39.0949 a1         1 CLA      0.064200
     52 C9         85.9896   56.8551   39.7255 a3         1 CLA     -0.259300
     53 C10        88.5260   56.9200   39.2661 a2         1 CLA     -0.071900
     54 C11        88.8517   57.4618   40.7147 a2         1 CLA      0.014500
     55 C12        88.8605   56.2779   41.6624 a2         1 CLA     -0.112100
     56 C13        89.2193   56.6145   43.1189 a1         1 CLA      0.089200
     57 C14        89.3146   55.3345   44.0032 a3         1 CLA     -0.239100
     58 C15        88.1488   57.4517   43.7358 a2         1 CLA     -0.102200
     59 C16        88.6540   58.2210   44.9913 a2         1 CLA      0.023900
     60 C17        87.6508   59.2476   45.5625 a2         1 CLA     -0.105700
     61 C18        86.4955   58.5622   46.3898 a1         1 CLA      0.206800
     62 C19        87.1238   58.1139   47.7916 a3         1 CLA     -0.280100
     63 C20        85.3279   59.5427   46.5565 a3         1 CLA     -0.280100
     64 NC         76.3131   58.8836   41.1724 nx         1 CLA     -0.309200
     65 MG         77.5743   58.9016   39.4797 mg         1 CLA      0.895000
     66 HMD3       73.1837   55.1624   39.3280 dc         1 CLA      0.064300
     67 HMD2       72.4632   55.9077   37.9134 dc         1 CLA      0.064300
     68 HMD1       73.5075   54.4481   37.7124 dc         1 CLA      0.064300
     69 HMC3       74.4588   59.8788   45.1724 dc         1 CLA      0.052100
     70 HMC2       76.0827   59.4435   45.4575 dc         1 CLA      0.052100
     71 HMC1       75.7276   60.9964   44.7717 dc         1 CLA      0.052100
     72 HMB3       82.1103   62.3995   39.4030 dc         1 CLA      0.063600
     73 HMB2       82.2697   63.0893   41.1514 dc         1 CLA      0.063600
     74 HMB1       82.8548   61.4181   40.7816 dc         1 CLA      0.063600
     75 HMA3       83.0869   58.2912   38.2381 dc         1 CLA      0.058300
     76 HMA2       82.3094   56.6934   38.0578 dc         1 CLA      0.058300
     77 HMA1       83.1858   57.2297   36.6792 dc         1 CLA      0.058300
     78 HED3       77.9594   51.9476   35.8360 dc         1 CLA      0.079300
     79 HED2       79.4649   52.7507   36.4838 dc         1 CLA      0.079300
     80 HED1       78.1635   52.2659   37.5915 dc         1 CLA      0.079300
     81 HBC3       72.5781   55.9410   43.8364 dc         1 CLA      0.016300
     82 HBC2       73.3769   55.9524   42.2945 dc         1 CLA      0.016300
     83 HBC1       74.3785   55.8699   43.7620 dc         1 CLA      0.016300
     84 HBB2       81.4571   62.4712   45.0879 da         1 CLA      0.183000
     85 HBB1       82.0671   61.4035   43.8307 da         1 CLA      0.183000
     86 HBA2       81.1496   58.2620   32.8317 dc         1 CLA      0.029400
     87 HBA1       82.0680   58.2319   34.1969 dc         1 CLA      0.029400
     88 HAC2       73.2553   58.1510   44.3627 dc         1 CLA      0.029300
     89 HAC1       72.4509   58.0771   42.9153 dc         1 CLA      0.029300
     90 HAA2       79.3437   57.1547   34.1998 dc         1 CLA      0.028700
     91 HAA1       79.7793   58.8636   34.6784 dc         1 CLA      0.028700
     92 H203       85.7691   60.2670   47.2204 dc         1 CLA      0.065600
     93 H202       85.1488   59.9579   45.5883 dc         1 CLA      0.065600
     94 H201       84.4966   58.9857   46.9928 dc         1 CLA      0.065600
     95 H193       87.2513   59.0469   48.3454 dc         1 CLA      0.065600
     96 H192       86.5757   57.3932   48.3152 dc         1 CLA      0.065600
     97 H191       88.1441   57.8083   47.8197 dc         1 CLA      0.065600
     98 H172       88.2559   59.7470   46.3232 dc         1 CLA      0.027600
     99 H171       87.4417   59.9900   44.8286 dc         1 CLA      0.027600
    100 H162       88.9594   57.5721   45.8195 dc         1 CLA      0.002900
    101 H161       89.6249   58.6415   44.7241 dc         1 CLA      0.002900
    102 H152       87.6829   58.2025   43.0913 dc         1 CLA      0.029100
    103 H151       87.2678   56.7761   43.9840 dc         1 CLA      0.029100
    104 H143       88.2989   54.8004   44.0835 dc         1 CLA      0.063600
    105 H142       90.1520   54.8291   43.5544 dc         1 CLA      0.063600
    106 H141       89.6079   55.4803   45.0335 dc         1 CLA      0.063600
    107 H122       87.8908   55.8428   41.7158 dc         1 CLA      0.032500
    108 H121       89.5687   55.4950   41.3242 dc         1 CLA      0.032500
    109 H112       89.8635   57.9285   40.7164 dc         1 CLA      0.006600
    110 H111       88.2359   58.2994   41.0980 dc         1 CLA      0.006600
    111 H102       89.3695   56.3230   38.9657 dc         1 CLA      0.024100
    112 H101       88.4815   57.7745   38.6370 dc         1 CLA      0.024100
    113 HHD        73.4373   57.0884   40.4577 da         1 CLA      0.174300
    114 HHC        77.5521   60.9837   43.5052 da         1 CLA      0.136800
    115 HHB        81.8086   60.2306   38.7877 da         1 CLA      0.138300
    116 HBD        77.2414   56.3172   34.5720 dc         1 CLA      0.107700
    117 HAB        79.3815   62.8093   43.7266 da         1 CLA      0.155200
    118 H93        85.8923   57.8196   39.2038 dc         1 CLA      0.069500
    119 H92        85.0491   56.2790   39.5819 dc         1 CLA      0.069500
    120 H91        86.0867   57.0704   40.7315 dc         1 CLA      0.069500
    121 H8         87.1960   55.1242   39.5674 dc         1 CLA      0.029300
    122 H72        88.0067   55.4828   37.2009 dc         1 CLA      0.044400
    123 H71        86.9340   56.7455   36.9129 dc         1 CLA      0.044400
    124 H62        85.0693   54.8034   37.5074 dc         1 CLA      0.015600
    125 H61        86.4605   53.7608   37.4763 dc         1 CLA      0.015600
    126 H52        86.7450   54.4107   35.0995 dc         1 CLA      0.033200
    127 H51        85.4278   55.6097   35.0500 dc         1 CLA      0.033200
    128 H43        86.4268   51.8800   35.5169 dc         1 CLA      0.037000
    129 H42        84.9659   51.5153   34.6219 dc         1 CLA      0.037000
    130 H41        86.1751   52.5880   33.7703 dc         1 CLA      0.037000
    131 H3A        81.5800   59.0618   36.3500 dc         1 CLA      0.041100
    132 H2A        80.5254   56.2975   36.1838 dc         1 CLA      0.083100
    133 H2         83.2583   53.1856   36.2154 da         1 CLA      0.180900
    134 H18        86.1575   57.7031   45.8414 dc         1 CLA     -0.003900
    135 H13        90.2432   57.0389   43.0610 dc         1 CLA      0.019700
    136 H12        82.0435   53.5119   33.7965 dc         1 CLA      0.120400
    137 H11        83.4355   54.3993   33.3126 dc         1 CLA      0.120400
    138 C1         68.9136   61.3580   50.0308 Z1         2 LUT      0.509236
    139 C2         67.6147   61.4090   50.8069 Z2         2 LUT     -0.434695
    140 C3         67.0018   62.6963   51.2265 Z3         2 LUT      0.437453
    141 O3         67.3961   62.8563   52.5400 S1         2 LUT     -0.547129
    142 C4         67.4982   63.8832   50.3329 Z4         2 LUT     -0.468603
    143 C5         68.1020   63.4782   49.0409 Z5         2 LUT      0.279246
    144 C6         68.9212   62.4103   48.9337 Z6         2 LUT     -0.305473
    145 C7         69.5549   62.0307   47.6493 Z7         2 LUT      0.069402
    146 C8         70.6979   62.5674   47.0647 Z8         2 LUT     -0.191631
    147 C9         71.5126   62.2362   45.8756 Z9         2 LUT      0.196698
    148 C10        72.5630   63.0044   45.4472 Y1         2 LUT     -0.208611
    149 C11        73.3641   62.8156   44.2245 Y2         2 LUT      0.030784
    150 C12        74.4411   63.5761   43.9107 Y3         2 LUT     -0.220316
    151 C13        75.2772   63.4076   42.6856 Y4         2 LUT      0.215937
    152 C14        76.5542   63.9486   42.5056 Y5         2 LUT     -0.185793
    153 C15        77.5054   63.8657   41.4308 Y6         2 LUT     -0.057835
    154 C16        69.2031   59.8625   49.7127 Y7         2 LUT     -0.405615
    155 C17        70.0725   61.9347   50.9654 Y7         2 LUT     -0.405615
    156 C18        67.8468   64.5524   47.9480 Y9         2 LUT     -0.369639
    157 C19        71.0190   60.9578   45.2102 W1         2 LUT     -0.333362
    158 C20        74.6971   62.6461   41.5023 W2         2 LUT     -0.323439
    159 C21        89.1762   64.3936   35.1382 Z1         2 LUT      0.406104
    160 C22        89.6975   63.8921   33.7823 Z2         2 LUT     -0.404965
    161 C23        89.6173   64.8706   32.6140 Z3         2 LUT      0.391255
    162 O23        89.9118   64.1065   31.4286 S1         2 LUT     -0.528210
    163 C24        88.3917   65.7575   32.6738 W6         2 LUT     -0.258361
    164 C25        87.5509   65.8734   33.6513 Z5         2 LUT      0.133546
    165 C26        87.7497   65.0757   34.9712 W8         2 LUT     -0.147008
    166 C27        87.2712   65.7933   36.2445 Z7         2 LUT      0.023843
    167 C28        85.9639   65.6960   36.7049 Z8         2 LUT     -0.216987
    168 C29        85.2130   66.3963   37.7910 Z9         2 LUT      0.206524
    169 C30        83.9964   65.8955   38.0567 Y1         2 LUT     -0.215556
    170 C31        83.0662   66.0703   39.1061 Y2         2 LUT      0.025142
    171 C32        81.8306   65.4149   39.2544 Y3         2 LUT     -0.212209
    172 C33        80.8833   65.4031   40.3677 Y4         2 LUT      0.240937
    173 C34        79.6838   64.7714   40.3394 Y5         2 LUT     -0.218862
    174 C35        78.6255   64.6865   41.4331 Y6         2 LUT     -0.023547
    175 C36        90.3012   65.4436   35.6270 Y7         2 LUT     -0.393485
    176 C37        89.4487   63.1982   36.0604 Y7         2 LUT     -0.393485
    177 C38        86.2292   66.5210   33.4118 Y9         2 LUT     -0.387526
    178 C39        85.9001   67.3130   38.7732 W1         2 LUT     -0.322618
    179 C40        81.4896   66.0905   41.6046 W2         2 LUT     -0.358472
    180 H403       81.8158   67.1094   41.2980 R7         2 LUT      0.097720
    181 H402       80.7477   66.3440   42.4241 R7         2 LUT      0.097720
    182 H401       82.4149   65.7068   42.0561 R7         2 LUT      0.097720
    183 H393       86.4018   66.7756   39.5673 R4         2 LUT      0.082505
    184 H392       86.6721   67.8691   38.2278 R4         2 LUT      0.082505
    185 H391       85.2082   68.0457   39.1975 R4         2 LUT      0.082505
    186 H383       86.2781   67.1844   32.5330 R1         2 LUT      0.104030
    187 H382       85.3731   65.7934   33.2169 R1         2 LUT      0.104030
    188 H381       86.0101   67.1371   34.2702 R1         2 LUT      0.104030
    189 H373       90.5145   62.7819   35.9452 T4         2 LUT      0.089537
    190 H372       89.3494   63.5738   37.0902 T4         2 LUT      0.089537
    191 H371       88.6412   62.4774   35.8741 T4         2 LUT      0.089537
    192 H363       90.0926   65.9218   36.5774 T4         2 LUT      0.089537
    193 H362       91.2066   64.8451   35.6579 T4         2 LUT      0.089537
    194 H361       90.2877   66.2593   34.9050 T4         2 LUT      0.089537
    195 H222       90.7106   63.4852   33.8969 U2         2 LUT      0.127376
    196 H221       89.1105   63.0779   33.4084 U2         2 LUT      0.127376
    197 H203       73.6396   62.7703   41.3586 R7         2 LUT      0.087068
    198 H202       75.2133   62.9657   40.5820 R7         2 LUT      0.087068
    199 H201       74.9164   61.6083   41.6034 R7         2 LUT      0.087068
    200 H193       70.3385   61.1526   44.3604 R4         2 LUT      0.089716
    201 H192       71.8481   60.3329   44.7704 R4         2 LUT      0.089716
    202 H191       70.4083   60.2904   45.8144 R4         2 LUT      0.089716
    203 H183       67.1290   65.3163   48.2109 R1         2 LUT      0.094572
    204 H182       68.7960   64.9633   47.6271 R1         2 LUT      0.094572
    205 H181       67.3568   63.9937   47.1091 R1         2 LUT      0.094572
    206 H173       69.7894   62.8216   51.4967 T4         2 LUT      0.093752
    207 H172       70.3130   61.2393   51.7971 T4         2 LUT      0.093752
    208 H171       71.0537   62.0944   50.5270 T4         2 LUT      0.093752
    209 H163       70.3360   59.7687   49.4554 T4         2 LUT      0.093752
    210 H162       69.0179   59.2787   50.5660 T4         2 LUT      0.093752
    211 H161       68.5908   59.4213   48.9260 T4         2 LUT      0.093752
    212 HO3        66.8343   63.4346   52.9764 Q1         2 LUT      0.300121
    213 H8         71.2495   63.3801   47.6411 U7         2 LUT      0.080784
    214 H7         69.0862   61.1167   47.2642 U6         2 LUT      0.042190
    215 H42        66.5927   64.5035   50.1512 U5         2 LUT      0.145166
    216 H41        68.2814   64.4544   50.8621 U5         2 LUT      0.145166
    217 H35        78.8587   65.3096   42.3098 T3         2 LUT      0.077919
    218 H34        79.5687   64.1290   39.4186 T2         2 LUT      0.073626
    219 H32        81.6564   64.6491   38.4555 T1         2 LUT      0.092510
    220 H31        83.4168   66.7380   39.9055 U9         2 LUT      0.070048
    221 H30        83.5570   65.1755   37.3541 U8         2 LUT      0.085442
    222 H3         65.9200   62.4479   51.1071 U3         2 LUT     -0.031596
    223 H28        85.4459   65.0163   35.9975 U7         2 LUT      0.084728
    224 H27        87.9508   66.4922   36.7950 U6         2 LUT      0.087291
    225 H26        87.1462   64.1854   34.7662 Q6         2 LUT      0.075325
    226 H24        88.2207   66.3002   31.7405 Q5         2 LUT      0.094482
    227 H23        90.4462   65.5602   32.8408 U3         2 LUT     -0.024869
    228 H22        66.9385   60.9329   50.1429 U2         2 LUT      0.127376
    229 H21        67.6427   60.7290   51.6833 U2         2 LUT      0.127376
    230 H15        77.2711   63.2456   40.6010 T3         2 LUT      0.093200
    231 H14        76.9001   64.3179   43.4686 T2         2 LUT      0.068865
    232 H12        74.8201   64.3636   44.6099 T1         2 LUT      0.095507
    233 H11        73.0605   62.0379   43.5334 U9         2 LUT      0.068930
    234 H10        72.7438   63.8960   46.0676 U8         2 LUT      0.083911
    235 H1         89.5721   64.4817   30.5844 Q1         2 LUT      0.297311
@<TRIPOS>BOND
    1     6     1 1
    2     7     2 1
    3     8     3 1
    4     9     4 1
    5    11     4 1
    6    12     6 1
    7    13     9 1
    8    16     9 1
    9    25     5 1
   10    25    16 1
   11    26    10 1
   12    26    17 1
   13    27    18 1
   14    28    14 1
   15    28    19 1
   16    29    12 1
   17    30    13 1
   18    31    24 1
   19    32     1 1
   20    32    25 1
   21    33    21 1
   22    33    26 1
   23    34    22 1
   24    34    27 1
   25    35    23 1
   26    35    28 1
   27    36    12 1
   28    36    24 1
   29    37    13 1
   30    37    15 1
   31    38    31 1
   32    39    20 1
   33    39    32 1
   34    40     2 1
   35    40    33 1
   36    41     3 1
   37    41    34 1
   38    42     4 1
   39    42    35 1
   40    43    38 1
   41    44     5 1
   42    44    17 1
   43    44    39 1
   44    45    10 1
   45    45    18 1
   46    45    40 1
   47    46    19 1
   48    46    41 1
   49    47    14 1
   50    47    16 1
   51    47    42 1
   52    48    38 1
   53    49    48 1
   54    50    49 1
   55    51    50 1
   56    52    51 1
   57    53    51 1
   58    54    53 1
   59    55    54 1
   60    56    55 1
   61    57    56 1
   62    58    56 1
   63    59    58 1
   64    60    59 1
   65    61    60 1
   66    62    61 1
   67    63    61 1
   68    64    27 1
   69    64    46 1
   70    65     5 1
   71    65    10 1
   72    65    64 1
   73    65    14 1
   74    66    23 1
   75    67    23 1
   76    68    23 1
   77    69    22 1
   78    70    22 1
   79    71    22 1
   80    72    21 1
   81    73    21 1
   82    74    21 1
   83    75    20 1
   84    76    20 1
   85    77    20 1
   86    78    15 1
   87    79    15 1
   88    80    15 1
   89    81     8 1
   90    82     8 1
   91    83     8 1
   92    84     7 1
   93    85     7 1
   94    86     6 1
   95    87     6 1
   96    88     3 1
   97    89     3 1
   98    90     1 1
   99    91     1 1
  100    92    63 1
  101    93    63 1
  102    94    63 1
  103    95    62 1
  104    96    62 1
  105    97    62 1
  106    98    60 1
  107    99    60 1
  108   100    59 1
  109   101    59 1
  110   102    58 1
  111   103    58 1
  112   104    57 1
  113   105    57 1
  114   106    57 1
  115   107    55 1
  116   108    55 1
  117   109    54 1
  118   110    54 1
  119   111    53 1
  120   112    53 1
  121   113    19 1
  122   114    18 1
  123   115    17 1
  124   116     9 1
  125   117     2 1
  126   118    52 1
  127   119    52 1
  128   120    52 1
  129   121    51 1
  130   122    50 1
  131   123    50 1
  132   124    49 1
  133   125    49 1
  134   126    48 1
  135   127    48 1
  136   128    43 1
  137   129    43 1
  138   130    43 1
  139   131    39 1
  140   132    32 1
  141   133    31 1
  142   134    61 1
  143   135    56 1
  144   136    24 1
  145   137    24 1
  146   139   138 1
  147   140   139 1
  148   141   140 1
  149   142   140 1
  150   143   142 1
  151   144   138 1
  152   144   143 1
  153   145   144 1
  154   146   145 1
  155   147   146 1
  156   148   147 1
  157   149   148 1
  158   150   149 1
  159   151   150 1
  160   152   151 1
  161   153   152 1
  162   154   138 1
  163   155   138 1
  164   156   143 1
  165   157   147 1
  166   158   151 1
  167   160   159 1
  168   161   160 1
  169   162   161 1
  170   163   161 1
  171   164   163 1
  172   165   159 1
  173   165   164 1
  174   166   165 1
  175   167   166 1
  176   168   167 1
  177   169   168 1
  178   170   169 1
  179   171   170 1
  180   172   171 1
  181   173   172 1
  182   174   153 1
  183   174   173 1
  184   175   159 1
  185   176   159 1
  186   177   164 1
  187   178   168 1
  188   179   172 1
  189   180   179 1
  190   181   179 1
  191   182   179 1
  192   183   178 1
  193   184   178 1
  194   185   178 1
  195   186   177 1
  196   187   177 1
  197   188   177 1
  198   189   176 1
  199   190   176 1
  200   191   176 1
  201   192   175 1
  202   193   175 1
  203   194   175 1
  204   195   160 1
  205   196   160 1
  206   197   158 1
  207   198   158 1
  208   199   158 1
  209   200   157 1
  210   201   157 1
  211   202   157 1
  212   203   156 1
  213   204   156 1
  214   205   156 1
  215   206   155 1
  216   207   155 1
  217   208   155 1
  218   209   154 1
  219   210   154 1
  220   211   154 1
  221   212   141 1
  222   213   146 1
  223   214   145 1
  224   215   142 1
  225   216   142 1
  226   217   174 1
  227   218   173 1
  228   219   171 1
  229   220   170 1
  230   221   169 1
  231   222   140 1
  232   223   167 1
  233   224   166 1
  234   225   165 1
  235   226   163 1
  236   227   161 1
  237   228   139 1
  238   229   139 1
  239   230   153 1
  240   231   152 1
  241   232   150 1
  242   233   149 1
  243   234   148 1
  244   235   162 1
  245   65    153 1
  246   65    174 1
@<TRIPOS>SUBSTRUCTURE
      1 CLA               1 ****               0 ****  **** 
      2 LUT             138 ****               0 ****  **** 
