@<TRIPOS>MOLECULE
Cpptraj generated mol2 file.
  235   246     2     0     0
SMALL
USER_CHARGES


@<TRIPOS>ATOM
      1 CAA        77.5245   58.9882   33.4322 a2         1 CLA     -0.055900
      2 CAB        78.1998   62.2757   42.7429 c8         1 CLA     -0.148500
      3 CAC        70.9689   58.4452   42.3200 a2         1 CLA     -0.012600
      4 CAD        73.4555   56.2945   34.8593 ck         1 CLA      0.398800
      5 NA         76.6790   59.3729   36.8975 ns         1 CLA     -0.225500
      6 CBA        78.7309   58.9410   32.4376 a2         1 CLA     -0.135000
      7 CBB        79.4454   62.4389   43.1967 c0         1 CLA     -0.395200
      8 CBC        70.8654   56.9595   42.0381 a3         1 CLA     -0.037700
      9 CBD        74.9703   56.7105   34.5492 a1         1 CLA     -0.053900
     10 NB         76.7480   60.6530   39.5439 nm         1 CLA     -0.295700
     11 OBD        72.6328   55.6580   34.2189 o2         1 CLA     -0.494600
     12 CGA        79.2307   57.5802   32.0187 c4         1 CLA      0.827000
     13 CGD        75.8677   55.4968   34.3906 c4         1 CLA      0.655300
     14 ND         74.0418   58.2927   37.6934 nm         1 CLA     -0.291600
     15 CED        75.7925   53.1341   34.1982 a3         1 CLA      0.005400
     16 CHA        75.3690   57.6505   35.6863 cs         1 CLA     -0.123800
     17 CHB        78.4982   60.6972   37.8534 aa         1 CLA     -0.291900
     18 CHC        75.6650   60.6861   41.6557 aa         1 CLA     -0.090400
     19 CHD        72.0783   58.4213   39.2743 aa         1 CLA     -0.052000
     20 CMA        80.0755   58.7284   36.1031 a3         1 CLA     -0.230700
     21 CMB        80.0046   62.5546   39.6278 a3         1 CLA     -0.180800
     22 CMC        73.2324   60.0034   43.8961 a3         1 CLA     -0.134000
     23 CMD        70.7687   56.4695   37.0809 a3         1 CLA     -0.141100
     24 C1         80.1299   55.5165   32.7419 a2         1 CLA      0.023000
     25 C1A        76.5494   58.4309   35.8891 ac         1 CLA     -0.015100
     26 C1B        77.9817   61.1087   39.0691 cr         1 CLA      0.054700
     27 C1C        74.4188   59.9773   41.4789 cn         1 CLA     -0.005600
     28 C1D        72.7185   57.9138   38.0446 ap         1 CLA     -0.047300
     29 O1A        79.0923   57.0858   30.9413 o2         1 CLA     -0.610800
     30 O1D        76.9645   55.5067   33.7548 o2         1 CLA     -0.558200
     31 C2         80.5933   54.8871   33.9744 c8         1 CLA     -0.325100
     32 C2A        77.7718   58.4829   34.8818 a1         1 CLA      0.098600
     33 C2B        78.6498   61.9219   40.0579 cb         1 CLA      0.088500
     34 C2C        73.2564   59.7897   42.4186 cb         1 CLA      0.053700
     35 C2D        72.0996   57.1595   37.0348 cb         1 CLA      0.058900
     36 O2A        79.9008   56.9472   33.0587 o1         1 CLA     -0.437200
     37 O2D        75.2872   54.3051   34.8619 o1         1 CLA     -0.357600
     38 C3         81.3985   53.7684   34.1093 c5         1 CLA      0.031200
     39 C3A        78.7606   59.3978   35.6526 a1         1 CLA      0.166800
     40 C3B        77.8858   61.7830   41.2705 cb         1 CLA      0.035000
     41 C3C        72.2743   59.0536   41.7120 cb         1 CLA     -0.089900
     42 C3D        73.1464   56.9707   36.1041 cb         1 CLA     -0.035900
     43 C4         80.9423   52.3694   34.0448 a3         1 CLA     -0.053300
     44 C4A        77.9369   59.8155   36.9139 ac         1 CLA      0.001800
     45 C4B        76.6780   61.0275   40.8187 cn         1 CLA     -0.020900
     46 C4C        72.7845   59.0097   40.3477 cr         1 CLA     -0.044400
     47 C4D        74.2733   57.6470   36.5551 c6         1 CLA     -0.046000
     48 C5         82.8748   53.9389   33.9188 a2         1 CLA     -0.070400
     49 C6         83.4136   55.3281   34.1872 a2         1 CLA      0.043900
     50 C7         83.4555   55.6091   35.6597 a2         1 CLA     -0.150000
     51 C8         84.2775   56.8680   35.9852 a1         1 CLA      0.064200
     52 C9         85.6195   56.9295   35.2988 a3         1 CLA     -0.259300
     53 C10        84.4712   57.2527   37.4734 a2         1 CLA     -0.071900
     54 C11        83.2189   57.0687   38.2508 a2         1 CLA      0.014500
     55 C12        83.3606   57.6560   39.6842 a2         1 CLA     -0.112100
     56 C13        81.9433   57.9672   40.2925 a1         1 CLA      0.089200
     57 C14        81.4967   59.3205   39.7592 a3         1 CLA     -0.239100
     58 C15        81.8960   57.9648   41.8428 a2         1 CLA     -0.102200
     59 C16        82.8175   58.9194   42.5572 a2         1 CLA      0.023900
     60 C17        82.9998   58.4310   43.9902 a2         1 CLA     -0.105700
     61 C18        83.5126   59.5118   45.0689 a1         1 CLA      0.206800
     62 C19        82.2654   60.3102   45.6402 a3         1 CLA     -0.280100
     63 C20        84.3092   58.9345   46.2284 a3         1 CLA     -0.280100
     64 NC         74.0725   59.4851   40.2356 nx         1 CLA     -0.309200
     65 MG         75.3460   59.5375   38.5260 mg         1 CLA      0.895000
     66 HMD3       70.6605   55.9075   38.0433 dc         1 CLA      0.064300
     67 HMD2       70.0349   57.2603   37.1126 dc         1 CLA      0.064300
     68 HMD1       70.5467   55.8760   36.2193 dc         1 CLA      0.064300
     69 HMC3       72.2552   60.2678   44.2448 dc         1 CLA      0.052100
     70 HMC2       73.5894   59.1683   44.5054 dc         1 CLA      0.052100
     71 HMC1       73.8932   60.8031   44.1339 dc         1 CLA      0.052100
     72 HMB3       80.7111   61.7337   39.6584 dc         1 CLA      0.063600
     73 HMB2       79.9981   63.0794   38.7036 dc         1 CLA      0.063600
     74 HMB1       80.3907   63.1826   40.4800 dc         1 CLA      0.063600
     75 HMA3       80.6744   59.5799   36.4266 dc         1 CLA      0.058300
     76 HMA2       79.8509   58.2168   37.0256 dc         1 CLA      0.058300
     77 HMA1       80.5866   58.1759   35.3223 dc         1 CLA      0.058300
     78 HED3       75.1422   52.3214   34.3067 dc         1 CLA      0.079300
     79 HED2       75.9092   53.3387   33.1437 dc         1 CLA      0.079300
     80 HED1       76.7310   52.8775   34.7006 dc         1 CLA      0.079300
     81 HBC3       70.6874   56.7528   40.9529 dc         1 CLA      0.016300
     82 HBC2       71.7727   56.4051   42.2808 dc         1 CLA      0.016300
     83 HBC1       70.0068   56.5842   42.5839 dc         1 CLA      0.016300
     84 HBB2       79.6649   62.8008   44.1899 da         1 CLA      0.183000
     85 HBB1       80.3609   62.1634   42.5553 da         1 CLA      0.183000
     86 HBA2       78.4679   59.5578   31.5763 dc         1 CLA      0.029400
     87 HBA1       79.5063   59.5411   32.9845 dc         1 CLA      0.029400
     88 HAC2       70.9023   58.5939   43.4226 dc         1 CLA      0.029300
     89 HAC1       70.0692   58.9092   41.9181 dc         1 CLA      0.029300
     90 HAA2       76.6282   58.4726   33.0827 dc         1 CLA      0.028700
     91 HAA1       77.3448   60.0918   33.5214 dc         1 CLA      0.028700
     92 H203       84.3852   59.5570   47.0442 dc         1 CLA      0.065600
     93 H202       83.7633   58.0996   46.7094 dc         1 CLA      0.065600
     94 H201       85.3271   58.7459   46.0864 dc         1 CLA      0.065600
     95 H193       81.8437   60.9511   44.8766 dc         1 CLA      0.065600
     96 H192       81.5619   59.5376   45.9998 dc         1 CLA      0.065600
     97 H191       82.4559   61.0078   46.4719 dc         1 CLA      0.065600
     98 H172       82.0472   57.9874   44.2860 dc         1 CLA      0.027600
     99 H171       83.7628   57.6281   43.9517 dc         1 CLA      0.027600
    100 H162       83.7784   59.1323   42.0665 dc         1 CLA      0.002900
    101 H161       82.3092   59.8980   42.7444 dc         1 CLA      0.002900
    102 H152       80.8866   57.9871   42.2947 dc         1 CLA      0.029100
    103 H151       82.3244   56.9686   42.1169 dc         1 CLA      0.029100
    104 H143       80.4103   59.4054   39.7775 dc         1 CLA      0.063600
    105 H142       81.9646   60.1162   40.2628 dc         1 CLA      0.063600
    106 H141       81.7262   59.4865   38.7238 dc         1 CLA      0.063600
    107 H122       83.9732   56.8751   40.2106 dc         1 CLA      0.032500
    108 H121       83.8868   58.6256   39.6687 dc         1 CLA      0.032500
    109 H112       82.4489   57.6514   37.8082 dc         1 CLA      0.006600
    110 H111       83.0132   55.9959   38.4337 dc         1 CLA      0.006600
    111 H102       85.2242   56.5489   37.8636 dc         1 CLA      0.024100
    112 H101       84.7854   58.3080   37.5489 dc         1 CLA      0.024100
    113 HHD        71.0420   58.1078   39.4380 da         1 CLA      0.174300
    114 HHC        75.6578   61.1932   42.6559 da         1 CLA      0.136800
    115 HHB        79.4143   61.1309   37.5512 da         1 CLA      0.138300
    116 HBD        74.8459   57.3096   33.6315 dc         1 CLA      0.107700
    117 HAB        77.3600   62.5328   43.4071 da         1 CLA      0.155200
    118 H93        85.4760   57.1700   34.2213 dc         1 CLA      0.069500
    119 H92        86.2048   57.6634   35.8658 dc         1 CLA      0.069500
    120 H91        86.1173   56.0477   35.6136 dc         1 CLA      0.069500
    121 H8         83.7324   57.6706   35.4573 dc         1 CLA      0.029300
    122 H72        82.4405   55.7968   36.0461 dc         1 CLA      0.044400
    123 H71        83.8880   54.7783   36.1320 dc         1 CLA      0.044400
    124 H62        84.3961   55.3736   33.7097 dc         1 CLA      0.015600
    125 H61        82.9199   56.1663   33.7468 dc         1 CLA      0.015600
    126 H52        83.3810   53.1906   34.5631 dc         1 CLA      0.033200
    127 H51        83.2099   53.7182   32.8766 dc         1 CLA      0.033200
    128 H43        79.8432   52.3654   34.0268 dc         1 CLA      0.037000
    129 H42        81.2844   52.0514   33.1071 dc         1 CLA      0.037000
    130 H41        81.4666   51.8027   34.8495 dc         1 CLA      0.037000
    131 H3A        79.0839   60.3102   35.1112 dc         1 CLA      0.041100
    132 H2A        78.1719   57.4909   34.8222 dc         1 CLA      0.083100
    133 H2         80.2739   55.4303   34.8734 da         1 CLA      0.180900
    134 H18        84.1064   60.2952   44.5992 dc         1 CLA     -0.003900
    135 H13        81.2448   57.1245   39.9640 dc         1 CLA      0.019700
    136 H12        79.2615   54.9538   32.4620 dc         1 CLA      0.120400
    137 H11        80.9077   55.5978   31.9951 dc         1 CLA      0.120400
    138 C1         68.9189   60.1919   49.5041 Z1         2 LUT      0.509236
    139 C2         69.7513   61.0660   50.4859 Z2         2 LUT     -0.434695
    140 C3         69.0163   62.1011   51.3507 Z3         2 LUT      0.437453
    141 O3         69.8838   63.2098   51.4124 S1         2 LUT     -0.547129
    142 C4         67.7285   62.6084   50.6834 Z4         2 LUT     -0.468603
    143 C5         67.5719   62.3822   49.1721 Z5         2 LUT      0.279246
    144 C6         68.2457   61.2888   48.5700 Z6         2 LUT     -0.305473
    145 C7         68.5067   61.2115   47.0677 Z7         2 LUT      0.069402
    146 C8         69.3297   62.0797   46.3851 Z8         2 LUT     -0.191631
    147 C9         69.7969   62.0188   45.0075 Z9         2 LUT      0.196698
    148 C10        70.6339   63.0038   44.4329 Y1         2 LUT     -0.208611
    149 C11        71.0369   63.0753   43.0891 Y2         2 LUT      0.030784
    150 C12        72.1693   63.7854   42.8074 Y3         2 LUT     -0.220316
    151 C13        72.9574   63.7403   41.5599 Y4         2 LUT      0.215937
    152 C14        74.1751   64.4049   41.5762 Y5         2 LUT     -0.185793
    153 C15        75.2033   64.5160   40.6033 Y6         2 LUT     -0.057835
    154 C16        67.9460   59.2329   50.2646 Y7         2 LUT     -0.405615
    155 C17        69.8028   59.1918   48.6436 Y7         2 LUT     -0.405615
    156 C18        67.0506   63.5967   48.4002 Y9         2 LUT     -0.369639
    157 C19        69.3054   60.7838   44.2909 W1         2 LUT     -0.333362
    158 C20        72.3543   63.0156   40.3926 W2         2 LUT     -0.323439
    159 C21        86.8195   66.1646   34.9550 Z1         2 LUT      0.406104
    160 C22        87.3446   65.5424   33.5904 Z2         2 LUT     -0.404965
    161 C23        87.2917   66.4656   32.3556 Z3         2 LUT      0.391255
    162 O23        87.7406   65.7044   31.2104 S1         2 LUT     -0.528210
    163 C24        85.9821   67.2527   32.3599 W6         2 LUT     -0.258361
    164 C25        85.0878   67.4378   33.3503 Z5         2 LUT      0.133546
    165 C26        85.2748   66.4823   34.6017 W8         2 LUT     -0.147008
    166 C27        84.5811   67.0397   35.8228 Z7         2 LUT      0.023843
    167 C28        83.5438   66.3920   36.3824 Z8         2 LUT     -0.216987
    168 C29        82.8926   66.9403   37.6154 Z9         2 LUT      0.206524
    169 C30        81.7654   66.2219   38.0157 Y1         2 LUT     -0.215556
    170 C31        80.8797   66.2076   39.1768 Y2         2 LUT      0.025142
    171 C32        79.5908   65.7272   39.1868 Y3         2 LUT     -0.212209
    172 C33        78.6582   65.5842   40.3449 Y4         2 LUT      0.240937
    173 C34        77.4313   65.1812   40.0821 Y5         2 LUT     -0.218862
    174 C35        76.2847   65.2534   40.9297 Y6         2 LUT     -0.023547
    175 C36        87.7364   67.3696   35.3958 Y7         2 LUT     -0.393485
    176 C37        86.9141   65.0347   36.0358 Y7         2 LUT     -0.393485
    177 C38        83.7350   68.1100   33.0898 Y9         2 LUT     -0.387526
    178 C39        83.5068   67.9085   38.4795 W1         2 LUT     -0.322618
    179 C40        79.2361   65.6960   41.7855 W2         2 LUT     -0.358472
    180 H403       79.3396   66.7959   42.0674 R7         2 LUT      0.097720
    181 H402       78.5731   65.2514   42.4859 R7         2 LUT      0.097720
    182 H401       80.1593   65.1523   41.8824 R7         2 LUT      0.097720
    183 H393       83.0078   68.9410   38.4850 R4         2 LUT      0.082505
    184 H392       83.3002   67.6134   39.4601 R4         2 LUT      0.082505
    185 H391       84.5458   68.1287   38.3654 R4         2 LUT      0.082505
    186 H383       82.8695   67.4504   33.2727 R1         2 LUT      0.104030
    187 H382       83.6039   68.9662   33.6974 R1         2 LUT      0.104030
    188 H381       83.7180   68.5304   32.1489 R1         2 LUT      0.104030
    189 H373       87.7365   64.4856   35.9601 T4         2 LUT      0.089537
    190 H372       86.8406   65.5275   36.9728 T4         2 LUT      0.089537
    191 H371       85.9768   64.4132   35.8996 T4         2 LUT      0.089537
    192 H363       88.6434   66.9499   35.6872 T4         2 LUT      0.089537
    193 H362       87.8293   68.0843   34.6051 T4         2 LUT      0.089537
    194 H361       87.3488   67.9829   36.2414 T4         2 LUT      0.089537
    195 H222       88.4287   65.2680   33.5872 U2         2 LUT      0.127376
    196 H221       86.7260   64.7575   33.2748 U2         2 LUT      0.127376
    197 H203       72.2741   61.9207   40.5648 R7         2 LUT      0.087068
    198 H202       71.4764   63.4369   40.0146 R7         2 LUT      0.087068
    199 H201       73.0692   63.0055   39.5638 R7         2 LUT      0.087068
    200 H193       69.3390   60.8186   43.1736 R4         2 LUT      0.089716
    201 H192       69.8202   59.8757   44.6900 R4         2 LUT      0.089716
    202 H191       68.2505   60.6587   44.5454 R4         2 LUT      0.089716
    203 H183       66.5476   63.3868   47.4669 R1         2 LUT      0.094572
    204 H182       66.3849   64.1800   49.0058 R1         2 LUT      0.094572
    205 H181       67.8863   64.3096   48.1799 R1         2 LUT      0.094572
    206 H173       70.2530   58.3919   49.2256 T4         2 LUT      0.093752
    207 H172       69.1647   58.6604   47.9619 T4         2 LUT      0.093752
    208 H171       70.6086   59.7170   48.1588 T4         2 LUT      0.093752
    209 H163       68.4907   58.4720   50.6922 T4         2 LUT      0.093752
    210 H162       67.3501   59.7693   51.0100 T4         2 LUT      0.093752
    211 H161       67.2808   58.7631   49.5740 T4         2 LUT      0.093752
    212 HO3        70.2884   63.2267   52.3244 Q1         2 LUT      0.300121
    213 H8         69.8973   62.8325   46.9641 U7         2 LUT      0.080784
    214 H7         67.9771   60.3599   46.6492 U6         2 LUT      0.042190
    215 H42        66.8832   62.1428   51.2413 U5         2 LUT      0.145166
    216 H41        67.6221   63.7324   50.9145 U5         2 LUT      0.145166
    217 H35        76.3756   65.8300   41.8349 T3         2 LUT      0.077919
    218 H34        77.1583   64.7076   39.1617 T2         2 LUT      0.073626
    219 H32        79.2362   65.3686   38.1690 T1         2 LUT      0.092510
    220 H31        81.3271   66.5937   40.0232 U9         2 LUT      0.070048
    221 H30        81.4922   65.4111   37.2678 U8         2 LUT      0.085442
    222 H3         68.6683   61.7422   52.3676 U3         2 LUT     -0.031596
    223 H28        83.1761   65.4153   35.9005 U7         2 LUT      0.084728
    224 H27        84.8428   67.9981   36.1167 U6         2 LUT      0.087291
    225 H26        84.8313   65.5263   34.2998 Q6         2 LUT      0.075325
    226 H24        85.7667   67.7723   31.4636 Q5         2 LUT      0.094482
    227 H23        88.1165   67.2554   32.4368 U3         2 LUT     -0.024869
    228 H22        70.3036   60.5518   51.2653 U2         2 LUT      0.127376
    229 H21        70.4252   61.6422   49.8551 U2         2 LUT      0.127376
    230 H15        75.1738   64.0105   39.6642 T3         2 LUT      0.093200
    231 H14        74.3318   64.8887   42.5283 T2         2 LUT      0.068865
    232 H12        72.5690   64.3562   43.7046 T1         2 LUT      0.095507
    233 H11        70.6497   62.3763   42.3168 U9         2 LUT      0.068930
    234 H10        70.9829   63.8828   45.0514 U8         2 LUT      0.083911
    235 H1         87.2224   66.0075   30.4230 Q1         2 LUT      0.297311
@<TRIPOS>BOND
    1     6     1 1
    2     7     2 1
    3     8     3 1
    4     9     4 1
    5    11     4 1
    6    12     6 1
    7    13     9 1
    8    16     9 1
    9    25     5 1
   10    25    16 1
   11    26    10 1
   12    26    17 1
   13    27    18 1
   14    28    14 1
   15    28    19 1
   16    29    12 1
   17    30    13 1
   18    31    24 1
   19    32     1 1
   20    32    25 1
   21    33    21 1
   22    33    26 1
   23    34    22 1
   24    34    27 1
   25    35    23 1
   26    35    28 1
   27    36    12 1
   28    36    24 1
   29    37    13 1
   30    37    15 1
   31    38    31 1
   32    39    20 1
   33    39    32 1
   34    40     2 1
   35    40    33 1
   36    41     3 1
   37    41    34 1
   38    42     4 1
   39    42    35 1
   40    43    38 1
   41    44     5 1
   42    44    17 1
   43    44    39 1
   44    45    10 1
   45    45    18 1
   46    45    40 1
   47    46    19 1
   48    46    41 1
   49    47    14 1
   50    47    16 1
   51    47    42 1
   52    48    38 1
   53    49    48 1
   54    50    49 1
   55    51    50 1
   56    52    51 1
   57    53    51 1
   58    54    53 1
   59    55    54 1
   60    56    55 1
   61    57    56 1
   62    58    56 1
   63    59    58 1
   64    60    59 1
   65    61    60 1
   66    62    61 1
   67    63    61 1
   68    64    27 1
   69    64    46 1
   70    65     5 1
   71    65    10 1
   72    65    64 1
   73    65    14 1
   74    66    23 1
   75    67    23 1
   76    68    23 1
   77    69    22 1
   78    70    22 1
   79    71    22 1
   80    72    21 1
   81    73    21 1
   82    74    21 1
   83    75    20 1
   84    76    20 1
   85    77    20 1
   86    78    15 1
   87    79    15 1
   88    80    15 1
   89    81     8 1
   90    82     8 1
   91    83     8 1
   92    84     7 1
   93    85     7 1
   94    86     6 1
   95    87     6 1
   96    88     3 1
   97    89     3 1
   98    90     1 1
   99    91     1 1
  100    92    63 1
  101    93    63 1
  102    94    63 1
  103    95    62 1
  104    96    62 1
  105    97    62 1
  106    98    60 1
  107    99    60 1
  108   100    59 1
  109   101    59 1
  110   102    58 1
  111   103    58 1
  112   104    57 1
  113   105    57 1
  114   106    57 1
  115   107    55 1
  116   108    55 1
  117   109    54 1
  118   110    54 1
  119   111    53 1
  120   112    53 1
  121   113    19 1
  122   114    18 1
  123   115    17 1
  124   116     9 1
  125   117     2 1
  126   118    52 1
  127   119    52 1
  128   120    52 1
  129   121    51 1
  130   122    50 1
  131   123    50 1
  132   124    49 1
  133   125    49 1
  134   126    48 1
  135   127    48 1
  136   128    43 1
  137   129    43 1
  138   130    43 1
  139   131    39 1
  140   132    32 1
  141   133    31 1
  142   134    61 1
  143   135    56 1
  144   136    24 1
  145   137    24 1
  146   139   138 1
  147   140   139 1
  148   141   140 1
  149   142   140 1
  150   143   142 1
  151   144   138 1
  152   144   143 1
  153   145   144 1
  154   146   145 1
  155   147   146 1
  156   148   147 1
  157   149   148 1
  158   150   149 1
  159   151   150 1
  160   152   151 1
  161   153   152 1
  162   154   138 1
  163   155   138 1
  164   156   143 1
  165   157   147 1
  166   158   151 1
  167   160   159 1
  168   161   160 1
  169   162   161 1
  170   163   161 1
  171   164   163 1
  172   165   159 1
  173   165   164 1
  174   166   165 1
  175   167   166 1
  176   168   167 1
  177   169   168 1
  178   170   169 1
  179   171   170 1
  180   172   171 1
  181   173   172 1
  182   174   153 1
  183   174   173 1
  184   175   159 1
  185   176   159 1
  186   177   164 1
  187   178   168 1
  188   179   172 1
  189   180   179 1
  190   181   179 1
  191   182   179 1
  192   183   178 1
  193   184   178 1
  194   185   178 1
  195   186   177 1
  196   187   177 1
  197   188   177 1
  198   189   176 1
  199   190   176 1
  200   191   176 1
  201   192   175 1
  202   193   175 1
  203   194   175 1
  204   195   160 1
  205   196   160 1
  206   197   158 1
  207   198   158 1
  208   199   158 1
  209   200   157 1
  210   201   157 1
  211   202   157 1
  212   203   156 1
  213   204   156 1
  214   205   156 1
  215   206   155 1
  216   207   155 1
  217   208   155 1
  218   209   154 1
  219   210   154 1
  220   211   154 1
  221   212   141 1
  222   213   146 1
  223   214   145 1
  224   215   142 1
  225   216   142 1
  226   217   174 1
  227   218   173 1
  228   219   171 1
  229   220   170 1
  230   221   169 1
  231   222   140 1
  232   223   167 1
  233   224   166 1
  234   225   165 1
  235   226   163 1
  236   227   161 1
  237   228   139 1
  238   229   139 1
  239   230   153 1
  240   231   152 1
  241   232   150 1
  242   233   149 1
  243   234   148 1
  244   235   162 1
  245   65    153 1
  246   65    174 1
@<TRIPOS>SUBSTRUCTURE
      1 CLA               1 ****               0 ****  **** 
      2 LUT             138 ****               0 ****  **** 
