@<TRIPOS>MOLECULE
Cpptraj generated mol2 file.
  235   246     2     0     0
SMALL
USER_CHARGES


@<TRIPOS>ATOM
      1 CAA        77.6897   59.0517   34.5593 a2         1 CLA     -0.055900
      2 CAB        77.4583   62.5179   43.5693 c8         1 CLA     -0.148500
      3 CAC        70.9769   57.6334   43.0474 a2         1 CLA     -0.012600
      4 CAD        73.6621   56.0478   35.6078 ck         1 CLA      0.398800
      5 NA         76.7393   59.1308   37.8789 ns         1 CLA     -0.225500
      6 CBA        79.0367   59.1069   33.8262 a2         1 CLA     -0.135000
      7 CBB        76.5561   63.2153   44.2777 c0         1 CLA     -0.395200
      8 CBC        71.1315   56.1317   42.9813 a3         1 CLA     -0.037700
      9 CBD        75.0824   56.7284   35.3283 a1         1 CLA     -0.053900
     10 NB         76.5517   60.4801   40.5330 nm         1 CLA     -0.295700
     11 OBD        73.0953   55.1970   34.9436 o2         1 CLA     -0.494600
     12 CGA        79.5273   57.8161   33.1989 c4         1 CLA      0.827000
     13 CGD        76.1014   55.6660   35.1201 c4         1 CLA      0.655300
     14 ND         73.9895   58.0018   38.4869 nm         1 CLA     -0.291600
     15 CED        77.2974   53.7418   36.1798 a3         1 CLA      0.005400
     16 CHA        75.4928   57.5033   36.5362 cs         1 CLA     -0.123800
     17 CHB        78.4593   60.4896   39.0330 aa         1 CLA     -0.291900
     18 CHC        75.1904   60.5043   42.6404 aa         1 CLA     -0.090400
     19 CHD        72.2225   57.5740   40.1374 aa         1 CLA     -0.052000
     20 CMA        79.9518   58.2902   37.5353 a3         1 CLA     -0.230700
     21 CMB        79.8056   62.2289   41.3154 a3         1 CLA     -0.180800
     22 CMC        72.7814   59.9455   44.6337 a3         1 CLA     -0.134000
     23 CMD        71.1860   55.4623   37.8455 a3         1 CLA     -0.141100
     24 C1         80.3915   55.6396   33.6124 a2         1 CLA      0.023000
     25 C1A        76.6719   58.2591   36.8334 ac         1 CLA     -0.015100
     26 C1B        77.8414   60.8546   40.2035 cr         1 CLA      0.054700
     27 C1C        74.0669   59.6868   42.3000 cn         1 CLA     -0.005600
     28 C1D        72.7373   57.4449   38.8344 ap         1 CLA     -0.047300
     29 O1A        79.3402   57.5336   32.0647 o2         1 CLA     -0.610800
     30 O1D        76.7772   55.5236   34.1186 o2         1 CLA     -0.558200
     31 C2         80.9805   54.7221   34.6865 c8         1 CLA     -0.325100
     32 C2A        77.9008   58.3981   35.9778 a1         1 CLA      0.098600
     33 C2B        78.3768   61.6645   41.2795 cb         1 CLA      0.088500
     34 C2C        72.9625   59.3734   43.2239 cb         1 CLA      0.053700
     35 C2D        72.2995   56.4717   37.8049 cb         1 CLA      0.058900
     36 O2A        80.0260   56.9730   34.1191 o1         1 CLA     -0.437200
     37 O2D        76.2165   54.8156   36.2435 o1         1 CLA     -0.357600
     38 C3         82.2783   54.6984   35.0345 c5         1 CLA      0.031200
     39 C3A        78.9074   59.1612   36.9534 a1         1 CLA      0.166800
     40 C3B        77.3559   61.7983   42.2833 cb         1 CLA      0.035000
     41 C3C        72.1620   58.4690   42.4892 cb         1 CLA     -0.089900
     42 C3D        73.2778   56.5886   36.8503 cb         1 CLA     -0.035900
     43 C4         83.1596   53.6334   34.4951 a3         1 CLA     -0.053300
     44 C4A        78.0064   59.6973   38.0184 ac         1 CLA      0.001800
     45 C4B        76.2940   60.8950   41.8877 cn         1 CLA     -0.020900
     46 C4C        72.6606   58.3209   41.2330 cr         1 CLA     -0.044400
     47 C4D        74.3285   57.4589   37.3225 c6         1 CLA     -0.046000
     48 C5         82.8521   55.8630   35.9117 a2         1 CLA     -0.070400
     49 C6         84.1569   55.5437   36.6261 a2         1 CLA      0.043900
     50 C7         84.3949   56.3022   37.9042 a2         1 CLA     -0.150000
     51 C8         84.1995   57.8610   37.7905 a1         1 CLA      0.064200
     52 C9         85.1026   58.4773   36.7295 a3         1 CLA     -0.259300
     53 C10        84.3020   58.6125   39.1936 a2         1 CLA     -0.071900
     54 C11        83.2861   58.1447   40.2820 a2         1 CLA      0.014500
     55 C12        82.8618   59.2083   41.3498 a2         1 CLA     -0.112100
     56 C13        83.9195   59.5746   42.4323 a1         1 CLA      0.089200
     57 C14        84.5476   58.3018   43.1610 a3         1 CLA     -0.239100
     58 C15        83.2987   60.6308   43.4798 a2         1 CLA     -0.102200
     59 C16        84.2940   61.6442   43.9971 a2         1 CLA      0.023900
     60 C17        83.6203   62.6955   44.8094 a2         1 CLA     -0.105700
     61 C18        84.6297   63.5841   45.5723 a1         1 CLA      0.206800
     62 C19        83.9111   64.6993   46.3004 a3         1 CLA     -0.280100
     63 C20        85.5536   62.8036   46.6528 a3         1 CLA     -0.280100
     64 NC         73.8270   59.0997   41.1222 nx         1 CLA     -0.309200
     65 MG         75.2178   59.3435   39.4458 mg         1 CLA      0.895000
     66 HMD3       70.2130   55.9692   37.6361 dc         1 CLA      0.064300
     67 HMD2       71.3384   54.4555   37.2960 dc         1 CLA      0.064300
     68 HMD1       71.1399   55.1491   38.9417 dc         1 CLA      0.064300
     69 HMC3       73.4823   59.4678   45.2961 dc         1 CLA      0.052100
     70 HMC2       72.9878   61.0030   44.6342 dc         1 CLA      0.052100
     71 HMC1       71.7479   59.6368   45.0640 dc         1 CLA      0.052100
     72 HMB3       79.5644   63.2724   41.3988 dc         1 CLA      0.063600
     73 HMB2       80.4609   61.9575   42.1476 dc         1 CLA      0.063600
     74 HMB1       80.3489   62.0098   40.3613 dc         1 CLA      0.063600
     75 HMA3       79.4212   57.4108   37.9650 dc         1 CLA      0.058300
     76 HMA2       80.5905   57.9936   36.7398 dc         1 CLA      0.058300
     77 HMA1       80.5911   58.7060   38.3050 dc         1 CLA      0.058300
     78 HED3       76.9322   52.7921   36.5759 dc         1 CLA      0.079300
     79 HED2       77.8716   53.6565   35.2188 dc         1 CLA      0.079300
     80 HED1       78.0360   54.1121   36.8873 dc         1 CLA      0.079300
     81 HBC3       71.3885   55.8696   41.9857 dc         1 CLA      0.016300
     82 HBC2       72.0131   55.8137   43.5324 dc         1 CLA      0.016300
     83 HBC1       70.2307   55.5484   43.2128 dc         1 CLA      0.016300
     84 HBB2       76.6814   63.5081   45.3430 da         1 CLA      0.183000
     85 HBB1       75.6084   63.3777   43.8051 da         1 CLA      0.183000
     86 HBA2       78.9230   59.6632   32.9391 dc         1 CLA      0.029400
     87 HBA1       79.8729   59.5737   34.3478 dc         1 CLA      0.029400
     88 HAC2       70.8284   57.8465   44.0706 dc         1 CLA      0.029300
     89 HAC1       70.0551   57.8783   42.5270 dc         1 CLA      0.029300
     90 HAA2       76.9639   58.5024   33.9916 dc         1 CLA      0.028700
     91 HAA1       77.3947   60.0657   34.7867 dc         1 CLA      0.028700
     92 H203       86.3586   62.1948   46.1265 dc         1 CLA      0.065600
     93 H202       85.8474   63.4538   47.4423 dc         1 CLA      0.065600
     94 H201       84.8407   62.1036   47.1969 dc         1 CLA      0.065600
     95 H193       84.6242   65.1953   46.9789 dc         1 CLA      0.065600
     96 H192       83.3402   65.2602   45.5105 dc         1 CLA      0.065600
     97 H191       83.0513   64.2705   46.8754 dc         1 CLA      0.065600
     98 H172       83.0133   63.2817   44.1648 dc         1 CLA      0.027600
     99 H171       82.8751   62.2908   45.5483 dc         1 CLA      0.027600
    100 H162       85.1197   61.1003   44.5554 dc         1 CLA      0.002900
    101 H161       84.6411   62.1564   43.1000 dc         1 CLA      0.002900
    102 H152       82.4600   61.0933   43.0751 dc         1 CLA      0.029100
    103 H151       82.8204   60.1246   44.2963 dc         1 CLA      0.029100
    104 H143       85.1268   57.7103   42.4573 dc         1 CLA      0.063600
    105 H142       85.0704   58.5022   44.0604 dc         1 CLA      0.063600
    106 H141       83.7086   57.7032   43.3256 dc         1 CLA      0.063600
    107 H122       82.6473   60.0709   40.7834 dc         1 CLA      0.032500
    108 H121       82.0743   58.9147   41.9525 dc         1 CLA      0.032500
    109 H112       82.3798   57.8621   39.7902 dc         1 CLA      0.006600
    110 H111       83.6659   57.2417   40.7156 dc         1 CLA      0.006600
    111 H102       85.3273   58.5141   39.5797 dc         1 CLA      0.024100
    112 H101       84.1395   59.6445   39.0598 dc         1 CLA      0.024100
    113 HHD        71.3303   56.9405   40.1568 da         1 CLA      0.174300
    114 HHC        75.2053   60.9427   43.6365 da         1 CLA      0.136800
    115 HHB        79.5310   60.8318   39.0208 da         1 CLA      0.138300
    116 HBD        74.8892   57.3145   34.3712 dc         1 CLA      0.107700
    117 HAB        78.4438   62.3307   44.0973 da         1 CLA      0.155200
    118 H93        84.8506   58.1724   35.7506 dc         1 CLA      0.069500
    119 H92        85.0405   59.5187   36.7112 dc         1 CLA      0.069500
    120 H91        86.1398   58.4195   37.0427 dc         1 CLA      0.069500
    121 H8         83.2488   58.0063   37.4606 dc         1 CLA      0.029300
    122 H72        83.7739   55.9964   38.7094 dc         1 CLA      0.044400
    123 H71        85.4199   56.2161   38.1712 dc         1 CLA      0.044400
    124 H62        84.1340   54.4952   36.8524 dc         1 CLA      0.015600
    125 H61        84.9051   55.7368   35.8885 dc         1 CLA      0.015600
    126 H52        83.1060   56.7698   35.3817 dc         1 CLA      0.033200
    127 H51        82.0029   56.2045   36.5279 dc         1 CLA      0.033200
    128 H43        83.0975   52.8060   35.2098 dc         1 CLA      0.037000
    129 H42        82.7937   53.2809   33.4722 dc         1 CLA      0.037000
    130 H41        84.2316   53.8573   34.1990 dc         1 CLA      0.037000
    131 H3A        79.3327   60.0249   36.4928 dc         1 CLA      0.041100
    132 H2A        78.2768   57.3631   35.8325 dc         1 CLA      0.083100
    133 H2         80.3736   54.1157   35.3184 da         1 CLA      0.180900
    134 H18        85.3161   64.0174   44.8132 dc         1 CLA     -0.003900
    135 H13        84.6196   60.1250   41.8780 dc         1 CLA      0.019700
    136 H12        79.4779   55.2238   33.2230 dc         1 CLA      0.120400
    137 H11        81.0546   55.7412   32.8181 dc         1 CLA      0.120400
    138 C1         66.9147   62.3839   51.1740 Z1         2 LUT      0.509236
    139 C2         66.7327   63.4958   52.1692 Z2         2 LUT     -0.434695
    140 C3         65.4364   64.2865   52.1547 Z3         2 LUT      0.437453
    141 O3         65.7012   65.5527   52.6834 S1         2 LUT     -0.547129
    142 C4         64.8735   64.3593   50.6989 Z4         2 LUT     -0.468603
    143 C5         65.6915   63.8378   49.5424 Z5         2 LUT      0.279246
    144 C6         66.5782   62.8121   49.6643 Z6         2 LUT     -0.305473
    145 C7         67.5974   62.4461   48.6334 Z7         2 LUT      0.069402
    146 C8         68.2668   63.1257   47.6500 Z8         2 LUT     -0.191631
    147 C9         68.9739   62.5608   46.4968 Z9         2 LUT      0.196698
    148 C10        69.9145   63.2687   45.7235 Y1         2 LUT     -0.208611
    149 C11        70.7216   62.9496   44.5645 Y2         2 LUT      0.030784
    150 C12        71.6107   63.9028   44.0386 Y3         2 LUT     -0.220316
    151 C13        72.4769   63.7197   42.8642 Y4         2 LUT      0.215937
    152 C14        73.5944   64.5428   42.6119 Y5         2 LUT     -0.185793
    153 C15        74.6223   64.5047   41.6002 Y6         2 LUT     -0.057835
    154 C16        65.9255   61.1291   51.2869 Y7         2 LUT     -0.405615
    155 C17        68.3056   61.8002   51.5775 Y7         2 LUT     -0.405615
    156 C18        65.5140   64.7614   48.3929 Y9         2 LUT     -0.369639
    157 C19        68.7207   61.1409   46.1128 W1         2 LUT     -0.333362
    158 C20        72.1707   62.5824   41.9615 W2         2 LUT     -0.323439
    159 C21        86.1984   66.0841   35.4384 Z1         2 LUT      0.406104
    160 C22        86.6678   65.2569   34.1614 Z2         2 LUT     -0.404965
    161 C23        86.7308   66.0357   32.7964 Z3         2 LUT      0.391255
    162 O23        86.9357   65.1283   31.7692 S1         2 LUT     -0.528210
    163 C24        85.6221   67.0272   32.7234 W6         2 LUT     -0.258361
    164 C25        84.7064   67.2061   33.7137 Z5         2 LUT      0.133546
    165 C26        84.6708   66.5265   35.1022 W8         2 LUT     -0.147008
    166 C27        83.8491   67.3188   36.1457 Z7         2 LUT      0.023843
    167 C28        82.6708   66.8613   36.7235 Z8         2 LUT     -0.216987
    168 C29        82.0672   67.2662   37.9799 Z9         2 LUT      0.206524
    169 C30        80.9340   66.5940   38.4147 Y1         2 LUT     -0.215556
    170 C31        80.0681   66.7418   39.5192 Y2         2 LUT      0.025142
    171 C32        79.0257   65.9387   39.8010 Y3         2 LUT     -0.212209
    172 C33        77.9740   66.1303   40.7938 Y4         2 LUT      0.240937
    173 C34        76.8296   65.3852   40.7335 Y5         2 LUT     -0.218862
    174 C35        75.6243   65.4352   41.5254 Y6         2 LUT     -0.023547
    175 C36        87.2192   67.2215   35.6198 Y7         2 LUT     -0.393485
    176 C37        86.2726   65.1779   36.6459 Y7         2 LUT     -0.393485
    177 C38        83.4858   68.0428   33.3241 Y9         2 LUT     -0.387526
    178 C39        82.6544   68.3941   38.7373 W1         2 LUT     -0.322618
    179 C40        78.3933   66.8673   42.0267 W2         2 LUT     -0.358472
    180 H403       79.3574   66.4347   42.3342 R7         2 LUT      0.097720
    181 H402       78.5379   67.9385   41.8368 R7         2 LUT      0.097720
    182 H401       77.6583   66.8263   42.8459 R7         2 LUT      0.097720
    183 H393       82.0072   68.8199   39.4879 R4         2 LUT      0.082505
    184 H392       83.5887   68.1631   39.2083 R4         2 LUT      0.082505
    185 H391       82.8854   69.2259   38.0768 R4         2 LUT      0.082505
    186 H383       82.5467   67.4834   33.2636 R1         2 LUT      0.104030
    187 H382       83.4037   68.8572   33.9900 R1         2 LUT      0.104030
    188 H381       83.6273   68.4701   32.3574 R1         2 LUT      0.104030
    189 H373       87.3239   64.8231   36.7261 T4         2 LUT      0.089537
    190 H372       85.9538   65.6894   37.5709 T4         2 LUT      0.089537
    191 H371       85.7813   64.2471   36.4491 T4         2 LUT      0.089537
    192 H363       88.2531   66.8239   35.7555 T4         2 LUT      0.089537
    193 H362       87.2432   67.9271   34.7410 T4         2 LUT      0.089537
    194 H361       87.0274   67.7856   36.6004 T4         2 LUT      0.089537
    195 H222       87.6960   64.9558   34.2042 U2         2 LUT      0.127376
    196 H221       86.1209   64.3317   33.9791 U2         2 LUT      0.127376
    197 H203       72.8908   62.3690   41.1683 R7         2 LUT      0.087068
    198 H202       71.9548   61.6232   42.3828 R7         2 LUT      0.087068
    199 H201       71.2775   62.8696   41.4759 R7         2 LUT      0.087068
    200 H193       67.7680   60.7511   46.5159 R4         2 LUT      0.089716
    201 H192       68.6098   60.9757   45.0223 R4         2 LUT      0.089716
    202 H191       69.5221   60.4461   46.4247 R4         2 LUT      0.089716
    203 H183       65.8686   65.7417   48.7091 R1         2 LUT      0.094572
    204 H182       66.0564   64.4670   47.4860 R1         2 LUT      0.094572
    205 H181       64.4567   64.9625   48.1805 R1         2 LUT      0.094572
    206 H173       68.5059   61.5862   52.6353 T4         2 LUT      0.093752
    207 H172       68.5819   60.8741   51.0206 T4         2 LUT      0.093752
    208 H171       69.0405   62.5117   51.2595 T4         2 LUT      0.093752
    209 H163       66.2101   60.1948   50.6970 T4         2 LUT      0.093752
    210 H162       65.8422   60.8443   52.3797 T4         2 LUT      0.093752
    211 H161       64.9350   61.3776   51.0517 T4         2 LUT      0.093752
    212 HO3        64.8872   65.8795   53.0659 Q1         2 LUT      0.300121
    213 H8         68.2377   64.1725   47.7003 U7         2 LUT      0.080784
    214 H7         67.6856   61.3796   48.5701 U6         2 LUT      0.042190
    215 H42        63.9687   63.7385   50.5214 U5         2 LUT      0.145166
    216 H41        64.4164   65.3241   50.4493 U5         2 LUT      0.145166
    217 H35        75.5880   66.3025   42.2575 T3         2 LUT      0.077919
    218 H34        76.8386   64.5592   39.9503 T2         2 LUT      0.073626
    219 H32        78.7509   65.1400   39.0861 T1         2 LUT      0.092510
    220 H31        80.2074   67.5682   40.1155 U9         2 LUT      0.070048
    221 H30        80.6764   65.7822   37.6665 U8         2 LUT      0.085442
    222 H3         64.7568   63.7081   52.7705 U3         2 LUT     -0.031596
    223 H28        82.3413   65.9440   36.3309 U7         2 LUT      0.084728
    224 H27        84.4294   68.0001   36.6545 U6         2 LUT      0.087291
    225 H26        84.2188   65.5600   34.9378 Q6         2 LUT      0.075325
    226 H24        85.5599   67.5845   31.7745 Q5         2 LUT      0.094482
    227 H23        87.4589   66.7896   32.8873 U3         2 LUT     -0.024869
    228 H22        66.7278   62.9703   53.1748 U2         2 LUT      0.127376
    229 H21        67.5761   64.2203   52.1326 U2         2 LUT      0.127376
    230 H15        74.6724   63.6496   40.9324 T3         2 LUT      0.093200
    231 H14        73.6854   65.4117   43.2250 T2         2 LUT      0.068865
    232 H12        71.7233   64.7776   44.6106 T1         2 LUT      0.095507
    233 H11        70.5632   61.9185   44.2708 U9         2 LUT      0.068930
    234 H10        70.1978   64.2737   46.1082 U8         2 LUT      0.083911
    235 H1         87.1923   65.6053   30.9360 Q1         2 LUT      0.297311
@<TRIPOS>BOND
    1     6     1 1
    2     7     2 1
    3     8     3 1
    4     9     4 1
    5    11     4 1
    6    12     6 1
    7    13     9 1
    8    16     9 1
    9    25     5 1
   10    25    16 1
   11    26    10 1
   12    26    17 1
   13    27    18 1
   14    28    14 1
   15    28    19 1
   16    29    12 1
   17    30    13 1
   18    31    24 1
   19    32     1 1
   20    32    25 1
   21    33    21 1
   22    33    26 1
   23    34    22 1
   24    34    27 1
   25    35    23 1
   26    35    28 1
   27    36    12 1
   28    36    24 1
   29    37    13 1
   30    37    15 1
   31    38    31 1
   32    39    20 1
   33    39    32 1
   34    40     2 1
   35    40    33 1
   36    41     3 1
   37    41    34 1
   38    42     4 1
   39    42    35 1
   40    43    38 1
   41    44     5 1
   42    44    17 1
   43    44    39 1
   44    45    10 1
   45    45    18 1
   46    45    40 1
   47    46    19 1
   48    46    41 1
   49    47    14 1
   50    47    16 1
   51    47    42 1
   52    48    38 1
   53    49    48 1
   54    50    49 1
   55    51    50 1
   56    52    51 1
   57    53    51 1
   58    54    53 1
   59    55    54 1
   60    56    55 1
   61    57    56 1
   62    58    56 1
   63    59    58 1
   64    60    59 1
   65    61    60 1
   66    62    61 1
   67    63    61 1
   68    64    27 1
   69    64    46 1
   70    65     5 1
   71    65    10 1
   72    65    64 1
   73    65    14 1
   74    66    23 1
   75    67    23 1
   76    68    23 1
   77    69    22 1
   78    70    22 1
   79    71    22 1
   80    72    21 1
   81    73    21 1
   82    74    21 1
   83    75    20 1
   84    76    20 1
   85    77    20 1
   86    78    15 1
   87    79    15 1
   88    80    15 1
   89    81     8 1
   90    82     8 1
   91    83     8 1
   92    84     7 1
   93    85     7 1
   94    86     6 1
   95    87     6 1
   96    88     3 1
   97    89     3 1
   98    90     1 1
   99    91     1 1
  100    92    63 1
  101    93    63 1
  102    94    63 1
  103    95    62 1
  104    96    62 1
  105    97    62 1
  106    98    60 1
  107    99    60 1
  108   100    59 1
  109   101    59 1
  110   102    58 1
  111   103    58 1
  112   104    57 1
  113   105    57 1
  114   106    57 1
  115   107    55 1
  116   108    55 1
  117   109    54 1
  118   110    54 1
  119   111    53 1
  120   112    53 1
  121   113    19 1
  122   114    18 1
  123   115    17 1
  124   116     9 1
  125   117     2 1
  126   118    52 1
  127   119    52 1
  128   120    52 1
  129   121    51 1
  130   122    50 1
  131   123    50 1
  132   124    49 1
  133   125    49 1
  134   126    48 1
  135   127    48 1
  136   128    43 1
  137   129    43 1
  138   130    43 1
  139   131    39 1
  140   132    32 1
  141   133    31 1
  142   134    61 1
  143   135    56 1
  144   136    24 1
  145   137    24 1
  146   139   138 1
  147   140   139 1
  148   141   140 1
  149   142   140 1
  150   143   142 1
  151   144   138 1
  152   144   143 1
  153   145   144 1
  154   146   145 1
  155   147   146 1
  156   148   147 1
  157   149   148 1
  158   150   149 1
  159   151   150 1
  160   152   151 1
  161   153   152 1
  162   154   138 1
  163   155   138 1
  164   156   143 1
  165   157   147 1
  166   158   151 1
  167   160   159 1
  168   161   160 1
  169   162   161 1
  170   163   161 1
  171   164   163 1
  172   165   159 1
  173   165   164 1
  174   166   165 1
  175   167   166 1
  176   168   167 1
  177   169   168 1
  178   170   169 1
  179   171   170 1
  180   172   171 1
  181   173   172 1
  182   174   153 1
  183   174   173 1
  184   175   159 1
  185   176   159 1
  186   177   164 1
  187   178   168 1
  188   179   172 1
  189   180   179 1
  190   181   179 1
  191   182   179 1
  192   183   178 1
  193   184   178 1
  194   185   178 1
  195   186   177 1
  196   187   177 1
  197   188   177 1
  198   189   176 1
  199   190   176 1
  200   191   176 1
  201   192   175 1
  202   193   175 1
  203   194   175 1
  204   195   160 1
  205   196   160 1
  206   197   158 1
  207   198   158 1
  208   199   158 1
  209   200   157 1
  210   201   157 1
  211   202   157 1
  212   203   156 1
  213   204   156 1
  214   205   156 1
  215   206   155 1
  216   207   155 1
  217   208   155 1
  218   209   154 1
  219   210   154 1
  220   211   154 1
  221   212   141 1
  222   213   146 1
  223   214   145 1
  224   215   142 1
  225   216   142 1
  226   217   174 1
  227   218   173 1
  228   219   171 1
  229   220   170 1
  230   221   169 1
  231   222   140 1
  232   223   167 1
  233   224   166 1
  234   225   165 1
  235   226   163 1
  236   227   161 1
  237   228   139 1
  238   229   139 1
  239   230   153 1
  240   231   152 1
  241   232   150 1
  242   233   149 1
  243   234   148 1
  244   235   162 1
  245   65    153 1
  246   65    174 1
@<TRIPOS>SUBSTRUCTURE
      1 CLA               1 ****               0 ****  **** 
      2 LUT             138 ****               0 ****  **** 
