@<TRIPOS>MOLECULE
Cpptraj generated mol2 file.
  235   246     2     0     0
SMALL
USER_CHARGES


@<TRIPOS>ATOM
      1 CAA        77.7464   58.9144   34.9867 a2         1 CLA     -0.055900
      2 CAB        77.4544   63.0674   43.8384 c8         1 CLA     -0.148500
      3 CAC        70.8318   58.4254   43.6983 a2         1 CLA     -0.012600
      4 CAD        73.7149   56.0882   36.3057 ck         1 CLA      0.398800
      5 NA         76.6044   59.4845   38.4909 ns         1 CLA     -0.225500
      6 CBA        79.0176   58.7162   34.1845 a2         1 CLA     -0.135000
      7 CBB        76.4430   63.6226   44.5592 c0         1 CLA     -0.395200
      8 CBC        70.7612   56.8536   43.3185 a3         1 CLA     -0.037700
      9 CBD        75.1473   56.6623   36.0478 a1         1 CLA     -0.053900
     10 NB         76.3284   61.1761   40.8828 nm         1 CLA     -0.295700
     11 OBD        73.2827   55.1940   35.5731 o2         1 CLA     -0.494600
     12 CGA        79.3479   57.3484   33.6717 c4         1 CLA      0.827000
     13 CGD        76.1399   55.6473   35.9552 c4         1 CLA      0.655300
     14 ND         73.7908   58.4183   38.9513 nm         1 CLA     -0.291600
     15 CED        76.5625   53.3236   36.6235 a3         1 CLA      0.005400
     16 CHA        75.4391   57.7927   37.1101 cs         1 CLA     -0.123800
     17 CHB        78.2666   61.0678   39.3893 aa         1 CLA     -0.291900
     18 CHC        75.1383   61.1739   42.9987 aa         1 CLA     -0.090400
     19 CHD        72.0092   58.1877   40.6525 aa         1 CLA     -0.052000
     20 CMA        79.9572   59.1572   37.8011 a3         1 CLA     -0.230700
     21 CMB        79.6112   62.8649   41.4175 a3         1 CLA     -0.180800
     22 CMC        72.8204   60.4854   45.1833 a3         1 CLA     -0.134000
     23 CMD        70.8645   56.1339   38.4034 a3         1 CLA     -0.141100
     24 C1         80.1033   55.1880   34.2733 a2         1 CLA      0.023000
     25 C1A        76.5550   58.5995   37.4023 ac         1 CLA     -0.015100
     26 C1B        77.6603   61.4542   40.5642 cr         1 CLA      0.054700
     27 C1C        74.0036   60.3688   42.7297 cn         1 CLA     -0.005600
     28 C1D        72.5615   57.9168   39.3561 ap         1 CLA     -0.047300
     29 O1A        79.1300   56.9534   32.5499 o2         1 CLA     -0.610800
     30 O1D        77.0345   55.5508   35.0809 o2         1 CLA     -0.558200
     31 C2         80.6619   54.5298   35.4966 c8         1 CLA     -0.325100
     32 C2A        77.8514   58.5706   36.5320 a1         1 CLA      0.098600
     33 C2B        78.2158   62.3394   41.5540 cb         1 CLA      0.088500
     34 C2C        72.9037   60.0125   43.7209 cb         1 CLA      0.053700
     35 C2D        72.1703   56.8807   38.3961 cb         1 CLA      0.058900
     36 O2A        79.7802   56.5136   34.6454 o1         1 CLA     -0.437200
     37 O2D        75.9075   54.6286   36.8952 o1         1 CLA     -0.357600
     38 C3         82.0244   54.4076   35.7268 c5         1 CLA      0.031200
     39 C3A        78.6715   59.6701   37.2720 a1         1 CLA      0.166800
     40 C3B        77.3423   62.3220   42.6235 cb         1 CLA      0.035000
     41 C3C        72.0238   59.1349   43.0720 cb         1 CLA     -0.089900
     42 C3D        73.2282   56.7251   37.4778 cb         1 CLA     -0.035900
     43 C4         82.9502   53.3447   35.1315 a3         1 CLA     -0.053300
     44 C4A        77.7949   60.1354   38.4752 ac         1 CLA      0.001800
     45 C4B        76.1928   61.4765   42.2012 cn         1 CLA     -0.020900
     46 C4C        72.5170   59.0337   41.7234 cr         1 CLA     -0.044400
     47 C4D        74.2069   57.7234   37.8719 c6         1 CLA     -0.046000
     48 C5         82.6819   55.5567   36.4985 a2         1 CLA     -0.070400
     49 C6         83.8294   55.1575   37.4251 a2         1 CLA      0.043900
     50 C7         84.2103   56.2264   38.5445 a2         1 CLA     -0.150000
     51 C8         84.1468   57.7933   38.2666 a1         1 CLA      0.064200
     52 C9         85.1119   58.1948   37.1614 a3         1 CLA     -0.259300
     53 C10        84.2886   58.5894   39.6283 a2         1 CLA     -0.071900
     54 C11        83.0658   58.5354   40.5893 a2         1 CLA      0.014500
     55 C12        82.9080   59.8448   41.3771 a2         1 CLA     -0.112100
     56 C13        84.0276   60.1616   42.4749 a1         1 CLA      0.089200
     57 C14        84.5954   58.9828   43.4020 a3         1 CLA     -0.239100
     58 C15        83.4234   61.2796   43.3135 a2         1 CLA     -0.102200
     59 C16        84.3131   62.1041   44.3052 a2         1 CLA      0.023900
     60 C17        83.4065   63.0569   45.1305 a2         1 CLA     -0.105700
     61 C18        84.2126   63.7271   46.3153 a1         1 CLA      0.206800
     62 C19        83.2561   64.6702   47.0161 a3         1 CLA     -0.280100
     63 C20        84.7271   62.6876   47.4346 a3         1 CLA     -0.280100
     64 NC         73.7230   59.7627   41.5699 nx         1 CLA     -0.309200
     65 MG         75.0851   59.8417   39.9080 mg         1 CLA      0.895000
     66 HMD3       70.1401   56.7627   37.8370 dc         1 CLA      0.064300
     67 HMD2       70.9073   55.2175   37.8209 dc         1 CLA      0.064300
     68 HMD1       70.5148   55.9495   39.3878 dc         1 CLA      0.064300
     69 HMC3       72.7129   59.5792   45.7970 dc         1 CLA      0.052100
     70 HMC2       73.7425   61.0485   45.3831 dc         1 CLA      0.052100
     71 HMC1       71.9744   61.1468   45.3421 dc         1 CLA      0.052100
     72 HMB3       79.6737   63.2739   40.3822 dc         1 CLA      0.063600
     73 HMB2       79.9613   63.6625   42.1262 dc         1 CLA      0.063600
     74 HMB1       80.2869   62.0529   41.7122 dc         1 CLA      0.063600
     75 HMA3       79.7603   58.2946   38.4193 dc         1 CLA      0.058300
     76 HMA2       80.6475   59.0794   36.9525 dc         1 CLA      0.058300
     77 HMA1       80.3889   59.9675   38.4202 dc         1 CLA      0.058300
     78 HED3       75.9630   52.8463   35.8364 dc         1 CLA      0.079300
     79 HED2       77.5148   53.5172   36.1898 dc         1 CLA      0.079300
     80 HED1       76.5591   52.6971   37.4959 dc         1 CLA      0.079300
     81 HBC3       70.4233   56.1736   44.0850 dc         1 CLA      0.016300
     82 HBC2       70.0745   56.6383   42.5453 dc         1 CLA      0.016300
     83 HBC1       71.7760   56.4166   43.0855 dc         1 CLA      0.016300
     84 HBB2       76.6547   64.3659   45.3206 da         1 CLA      0.183000
     85 HBB1       75.3716   63.5020   44.3296 da         1 CLA      0.183000
     86 HBA2       78.8061   59.3608   33.3402 dc         1 CLA      0.029400
     87 HBA1       79.8560   59.1139   34.7974 dc         1 CLA      0.029400
     88 HAC2       70.9231   58.5179   44.7793 dc         1 CLA      0.029300
     89 HAC1       69.9387   58.9226   43.2950 dc         1 CLA      0.029300
     90 HAA2       77.0075   58.2222   34.5022 dc         1 CLA      0.028700
     91 HAA1       77.3616   59.9386   34.8378 dc         1 CLA      0.028700
     92 H203       85.4360   61.9239   47.0971 dc         1 CLA      0.065600
     93 H202       85.1959   63.3260   48.1633 dc         1 CLA      0.065600
     94 H201       84.0311   62.0992   47.9687 dc         1 CLA      0.065600
     95 H193       82.4803   65.2089   46.3996 dc         1 CLA      0.065600
     96 H192       82.6530   64.0760   47.8041 dc         1 CLA      0.065600
     97 H191       83.8092   65.3932   47.5488 dc         1 CLA      0.065600
     98 H172       83.0008   63.8673   44.4949 dc         1 CLA      0.027600
     99 H171       82.5914   62.4786   45.5505 dc         1 CLA      0.027600
    100 H162       84.7751   61.4363   45.0721 dc         1 CLA      0.002900
    101 H161       85.0889   62.6514   43.7019 dc         1 CLA      0.002900
    102 H152       83.0184   62.0318   42.6373 dc         1 CLA      0.029100
    103 H151       82.6440   60.7923   43.9358 dc         1 CLA      0.029100
    104 H143       85.0704   58.1232   42.9079 dc         1 CLA      0.063600
    105 H142       85.3174   59.4189   44.0973 dc         1 CLA      0.063600
    106 H141       83.8344   58.4945   44.0507 dc         1 CLA      0.063600
    107 H122       82.8011   60.7660   40.8401 dc         1 CLA      0.032500
    108 H121       81.9601   59.7810   41.9387 dc         1 CLA      0.032500
    109 H112       82.2357   58.4173   39.9338 dc         1 CLA      0.006600
    110 H111       83.3511   57.7482   41.3129 dc         1 CLA      0.006600
    111 H102       85.1359   58.1866   40.1855 dc         1 CLA      0.024100
    112 H101       84.4800   59.6467   39.3881 dc         1 CLA      0.024100
    113 HHD        71.0890   57.6595   40.8662 da         1 CLA      0.174300
    114 HHC        75.2876   61.4395   44.0119 da         1 CLA      0.136800
    115 HHB        79.2459   61.4780   39.1939 da         1 CLA      0.138300
    116 HBD        75.0439   57.1166   35.1001 dc         1 CLA      0.107700
    117 HAB        78.4712   63.3709   44.1845 da         1 CLA      0.155200
    118 H93        85.1560   57.4042   36.4127 dc         1 CLA      0.069500
    119 H92        84.7118   59.1165   36.7258 dc         1 CLA      0.069500
    120 H91        86.1198   58.3933   37.5660 dc         1 CLA      0.069500
    121 H8         83.1002   58.0861   37.9278 dc         1 CLA      0.029300
    122 H72        83.4378   56.1149   39.3061 dc         1 CLA      0.044400
    123 H71        85.1648   55.9397   38.9501 dc         1 CLA      0.044400
    124 H62        83.6199   54.1222   37.7976 dc         1 CLA      0.015600
    125 H61        84.7338   55.1841   36.7981 dc         1 CLA      0.015600
    126 H52        82.9867   56.3320   35.8281 dc         1 CLA      0.033200
    127 H51        81.8864   55.9180   37.0715 dc         1 CLA      0.033200
    128 H43        82.3982   53.1315   34.2204 dc         1 CLA      0.037000
    129 H42        83.9456   53.7517   34.8660 dc         1 CLA      0.037000
    130 H41        83.1076   52.4778   35.7184 dc         1 CLA      0.037000
    131 H3A        78.9223   60.4860   36.6605 dc         1 CLA      0.041100
    132 H2A        78.2524   57.5479   36.6265 dc         1 CLA      0.083100
    133 H2         80.0152   54.0220   36.2102 da         1 CLA      0.180900
    134 H18        85.0860   64.2727   45.9411 dc         1 CLA     -0.003900
    135 H13        84.9239   60.4913   41.9430 dc         1 CLA      0.019700
    136 H12        79.1732   54.6939   33.9256 dc         1 CLA      0.120400
    137 H11        80.8647   55.3283   33.4550 dc         1 CLA      0.120400
    138 C1         67.1873   62.1811   50.6787 Z1         2 LUT      0.509236
    139 C2         67.1330   63.3803   51.6247 Z2         2 LUT     -0.434695
    140 C3         65.7678   64.1168   51.7266 Z3         2 LUT      0.437453
    141 O3         66.1246   65.3835   52.2453 S1         2 LUT     -0.547129
    142 C4         65.1470   64.1791   50.3078 Z4         2 LUT     -0.468603
    143 C5         65.9201   63.7017   49.1777 Z5         2 LUT      0.279246
    144 C6         66.8043   62.6675   49.3059 Z6         2 LUT     -0.305473
    145 C7         67.6887   62.3070   48.1112 Z7         2 LUT      0.069402
    146 C8         68.4393   63.0320   47.3393 Z8         2 LUT     -0.191631
    147 C9         69.1868   62.6372   46.1768 Z9         2 LUT      0.196698
    148 C10        70.0737   63.4561   45.5289 Y1         2 LUT     -0.208611
    149 C11        70.8535   63.2362   44.3497 Y2         2 LUT      0.030784
    150 C12        71.8067   64.0346   43.7044 Y3         2 LUT     -0.220316
    151 C13        72.6427   63.6958   42.5643 Y4         2 LUT      0.215937
    152 C14        73.6732   64.5463   42.4206 Y5         2 LUT     -0.185793
    153 C15        74.7539   64.5125   41.4094 Y6         2 LUT     -0.057835
    154 C16        66.2022   61.1337   51.2218 Y7         2 LUT     -0.405615
    155 C17        68.5860   61.5409   50.7171 Y7         2 LUT     -0.405615
    156 C18        65.7926   64.6913   48.0088 Y9         2 LUT     -0.369639
    157 C19        68.8642   61.2969   45.5874 W1         2 LUT     -0.333362
    158 C20        72.0410   62.8495   41.3918 W2         2 LUT     -0.323439
    159 C21        86.3382   66.2901   35.3806 Z1         2 LUT      0.406104
    160 C22        87.0557   65.9374   34.0532 Z2         2 LUT     -0.404965
    161 C23        87.0922   67.0303   32.9641 Z3         2 LUT      0.391255
    162 O23        87.8559   66.5162   31.9234 S1         2 LUT     -0.528210
    163 C24        85.6974   67.5462   32.6943 W6         2 LUT     -0.258361
    164 C25        84.7324   67.4988   33.6200 Z5         2 LUT      0.133546
    165 C26        84.8653   66.6888   34.9566 W8         2 LUT     -0.147008
    166 C27        84.0548   67.2749   36.0833 Z7         2 LUT      0.023843
    167 C28        83.1370   66.5985   36.8191 Z8         2 LUT     -0.216987
    168 C29        82.3300   67.1165   37.8639 Z9         2 LUT      0.206524
    169 C30        81.1176   66.5199   38.2422 Y1         2 LUT     -0.215556
    170 C31        80.2574   66.6709   39.4203 Y2         2 LUT      0.025142
    171 C32        79.0981   65.9153   39.6133 Y3         2 LUT     -0.212209
    172 C33        78.1416   65.9025   40.6477 Y4         2 LUT      0.240937
    173 C34        76.9527   65.2152   40.4714 Y5         2 LUT     -0.218862
    174 C35        75.8682   65.2548   41.4267 Y6         2 LUT     -0.023547
    175 C36        87.0951   67.3880   36.1547 Y7         2 LUT     -0.393485
    176 C37        86.5156   65.0962   36.2948 Y7         2 LUT     -0.393485
    177 C38        83.4316   68.1731   33.3069 Y9         2 LUT     -0.387526
    178 C39        82.8916   68.3517   38.5285 W1         2 LUT     -0.322618
    179 C40        78.6198   66.6719   41.9020 W2         2 LUT     -0.358472
    180 H403       77.7641   66.8638   42.5335 R7         2 LUT      0.097720
    181 H402       79.2652   65.9719   42.5218 R7         2 LUT      0.097720
    182 H401       79.0659   67.6530   41.6715 R7         2 LUT      0.097720
    183 H393       83.9932   68.4299   38.3478 R4         2 LUT      0.082505
    184 H392       82.4654   69.3473   38.2912 R4         2 LUT      0.082505
    185 H391       82.7169   68.3791   39.6064 R4         2 LUT      0.082505
    186 H383       82.6579   67.4740   33.1172 R1         2 LUT      0.104030
    187 H382       83.1401   68.8193   34.1819 R1         2 LUT      0.104030
    188 H381       83.4626   68.8289   32.3766 R1         2 LUT      0.104030
    189 H373       87.5865   64.9506   36.5916 T4         2 LUT      0.089537
    190 H372       85.7853   64.9314   37.1081 T4         2 LUT      0.089537
    191 H371       86.5116   64.0848   35.7787 T4         2 LUT      0.089537
    192 H363       88.1607   67.1752   36.1752 T4         2 LUT      0.089537
    193 H362       86.9338   68.2763   35.5824 T4         2 LUT      0.089537
    194 H361       86.6826   67.4621   37.1575 T4         2 LUT      0.089537
    195 H222       88.1300   65.6051   34.2099 U2         2 LUT      0.127376
    196 H221       86.5087   65.1574   33.6376 U2         2 LUT      0.127376
    197 H203       72.8291   62.6066   40.6479 R7         2 LUT      0.087068
    198 H202       71.5988   61.8991   41.8137 R7         2 LUT      0.087068
    199 H201       71.3320   63.3730   40.8625 R7         2 LUT      0.087068
    200 H193       67.9436   60.9218   45.8891 R4         2 LUT      0.089716
    201 H192       68.9025   61.1913   44.5212 R4         2 LUT      0.089716
    202 H191       69.5528   60.4869   46.0121 R4         2 LUT      0.089716
    203 H183       66.5290   65.4287   48.0898 R1         2 LUT      0.094572
    204 H182       66.0440   64.1233   47.1026 R1         2 LUT      0.094572
    205 H181       64.8069   65.1827   47.8603 R1         2 LUT      0.094572
    206 H173       68.8388   61.2938   51.7239 T4         2 LUT      0.093752
    207 H172       68.7623   60.6244   50.1311 T4         2 LUT      0.093752
    208 H171       69.3506   62.3353   50.4981 T4         2 LUT      0.093752
    209 H163       66.3044   60.0917   50.8590 T4         2 LUT      0.093752
    210 H162       66.1965   61.0367   52.3348 T4         2 LUT      0.093752
    211 H161       65.2230   61.4319   50.8262 T4         2 LUT      0.093752
    212 HO3        65.3000   65.9326   52.3780 Q1         2 LUT      0.300121
    213 H8         68.4305   64.0822   47.4289 U7         2 LUT      0.080784
    214 H7         67.7533   61.1704   47.9674 U6         2 LUT      0.042190
    215 H42        64.2557   63.5455   50.3954 U5         2 LUT      0.145166
    216 H41        64.7849   65.2098   50.1611 U5         2 LUT      0.145166
    217 H35        75.8677   65.9186   42.2967 T3         2 LUT      0.077919
    218 H34        76.7467   64.6299   39.5366 T2         2 LUT      0.073626
    219 H32        78.8755   65.1948   38.7954 T1         2 LUT      0.092510
    220 H31        80.5872   67.4081   40.1620 U9         2 LUT      0.070048
    221 H30        80.8028   65.7120   37.5889 U8         2 LUT      0.085442
    222 H3         65.0660   63.4568   52.3584 U3         2 LUT     -0.031596
    223 H28        82.9707   65.5343   36.6039 U7         2 LUT      0.084728
    224 H27        84.1923   68.3415   36.2570 U6         2 LUT      0.087291
    225 H26        84.4870   65.7508   34.6938 Q6         2 LUT      0.075325
    226 H24        85.4940   68.0047   31.7155 Q5         2 LUT      0.094482
    227 H23        87.4900   67.9465   33.4758 U3         2 LUT     -0.024869
    228 H22        67.4378   62.9990   52.5265 U2         2 LUT      0.127376
    229 H21        67.8381   64.0755   51.2377 U2         2 LUT      0.127376
    230 H15        74.7218   63.8389   40.6053 T3         2 LUT      0.093200
    231 H14        73.7861   65.2921   43.2169 T2         2 LUT      0.068865
    232 H12        71.9844   64.9874   44.2359 T1         2 LUT      0.095507
    233 H11        70.8473   62.2649   43.8832 U9         2 LUT      0.068930
    234 H10        70.1803   64.3857   46.0644 U8         2 LUT      0.083911
    235 H1         87.3315   66.0028   31.2701 Q1         2 LUT      0.297311
@<TRIPOS>BOND
    1     6     1 1
    2     7     2 1
    3     8     3 1
    4     9     4 1
    5    11     4 1
    6    12     6 1
    7    13     9 1
    8    16     9 1
    9    25     5 1
   10    25    16 1
   11    26    10 1
   12    26    17 1
   13    27    18 1
   14    28    14 1
   15    28    19 1
   16    29    12 1
   17    30    13 1
   18    31    24 1
   19    32     1 1
   20    32    25 1
   21    33    21 1
   22    33    26 1
   23    34    22 1
   24    34    27 1
   25    35    23 1
   26    35    28 1
   27    36    12 1
   28    36    24 1
   29    37    13 1
   30    37    15 1
   31    38    31 1
   32    39    20 1
   33    39    32 1
   34    40     2 1
   35    40    33 1
   36    41     3 1
   37    41    34 1
   38    42     4 1
   39    42    35 1
   40    43    38 1
   41    44     5 1
   42    44    17 1
   43    44    39 1
   44    45    10 1
   45    45    18 1
   46    45    40 1
   47    46    19 1
   48    46    41 1
   49    47    14 1
   50    47    16 1
   51    47    42 1
   52    48    38 1
   53    49    48 1
   54    50    49 1
   55    51    50 1
   56    52    51 1
   57    53    51 1
   58    54    53 1
   59    55    54 1
   60    56    55 1
   61    57    56 1
   62    58    56 1
   63    59    58 1
   64    60    59 1
   65    61    60 1
   66    62    61 1
   67    63    61 1
   68    64    27 1
   69    64    46 1
   70    65     5 1
   71    65    10 1
   72    65    64 1
   73    65    14 1
   74    66    23 1
   75    67    23 1
   76    68    23 1
   77    69    22 1
   78    70    22 1
   79    71    22 1
   80    72    21 1
   81    73    21 1
   82    74    21 1
   83    75    20 1
   84    76    20 1
   85    77    20 1
   86    78    15 1
   87    79    15 1
   88    80    15 1
   89    81     8 1
   90    82     8 1
   91    83     8 1
   92    84     7 1
   93    85     7 1
   94    86     6 1
   95    87     6 1
   96    88     3 1
   97    89     3 1
   98    90     1 1
   99    91     1 1
  100    92    63 1
  101    93    63 1
  102    94    63 1
  103    95    62 1
  104    96    62 1
  105    97    62 1
  106    98    60 1
  107    99    60 1
  108   100    59 1
  109   101    59 1
  110   102    58 1
  111   103    58 1
  112   104    57 1
  113   105    57 1
  114   106    57 1
  115   107    55 1
  116   108    55 1
  117   109    54 1
  118   110    54 1
  119   111    53 1
  120   112    53 1
  121   113    19 1
  122   114    18 1
  123   115    17 1
  124   116     9 1
  125   117     2 1
  126   118    52 1
  127   119    52 1
  128   120    52 1
  129   121    51 1
  130   122    50 1
  131   123    50 1
  132   124    49 1
  133   125    49 1
  134   126    48 1
  135   127    48 1
  136   128    43 1
  137   129    43 1
  138   130    43 1
  139   131    39 1
  140   132    32 1
  141   133    31 1
  142   134    61 1
  143   135    56 1
  144   136    24 1
  145   137    24 1
  146   139   138 1
  147   140   139 1
  148   141   140 1
  149   142   140 1
  150   143   142 1
  151   144   138 1
  152   144   143 1
  153   145   144 1
  154   146   145 1
  155   147   146 1
  156   148   147 1
  157   149   148 1
  158   150   149 1
  159   151   150 1
  160   152   151 1
  161   153   152 1
  162   154   138 1
  163   155   138 1
  164   156   143 1
  165   157   147 1
  166   158   151 1
  167   160   159 1
  168   161   160 1
  169   162   161 1
  170   163   161 1
  171   164   163 1
  172   165   159 1
  173   165   164 1
  174   166   165 1
  175   167   166 1
  176   168   167 1
  177   169   168 1
  178   170   169 1
  179   171   170 1
  180   172   171 1
  181   173   172 1
  182   174   153 1
  183   174   173 1
  184   175   159 1
  185   176   159 1
  186   177   164 1
  187   178   168 1
  188   179   172 1
  189   180   179 1
  190   181   179 1
  191   182   179 1
  192   183   178 1
  193   184   178 1
  194   185   178 1
  195   186   177 1
  196   187   177 1
  197   188   177 1
  198   189   176 1
  199   190   176 1
  200   191   176 1
  201   192   175 1
  202   193   175 1
  203   194   175 1
  204   195   160 1
  205   196   160 1
  206   197   158 1
  207   198   158 1
  208   199   158 1
  209   200   157 1
  210   201   157 1
  211   202   157 1
  212   203   156 1
  213   204   156 1
  214   205   156 1
  215   206   155 1
  216   207   155 1
  217   208   155 1
  218   209   154 1
  219   210   154 1
  220   211   154 1
  221   212   141 1
  222   213   146 1
  223   214   145 1
  224   215   142 1
  225   216   142 1
  226   217   174 1
  227   218   173 1
  228   219   171 1
  229   220   170 1
  230   221   169 1
  231   222   140 1
  232   223   167 1
  233   224   166 1
  234   225   165 1
  235   226   163 1
  236   227   161 1
  237   228   139 1
  238   229   139 1
  239   230   153 1
  240   231   152 1
  241   232   150 1
  242   233   149 1
  243   234   148 1
  244   235   162 1
  245   65    153 1
  246   65    174 1
@<TRIPOS>SUBSTRUCTURE
      1 CLA               1 ****               0 ****  **** 
      2 LUT             138 ****               0 ****  **** 
