@<TRIPOS>MOLECULE
Cpptraj generated mol2 file.
  235   246     2     0     0
SMALL
USER_CHARGES


@<TRIPOS>ATOM
      1 CAA        78.9567   59.0991   34.0560 a2         1 CLA     -0.055900
      2 CAB        78.5138   62.8929   43.0043 c8         1 CLA     -0.148500
      3 CAC        71.9702   58.3524   42.2675 a2         1 CLA     -0.012600
      4 CAD        74.9729   56.4138   34.8848 ck         1 CLA      0.398800
      5 NA         78.0385   59.2635   37.3148 ns         1 CLA     -0.225500
      6 CBA        80.2730   59.2041   33.2026 a2         1 CLA     -0.135000
      7 CBB        79.5466   63.2469   43.7768 c0         1 CLA     -0.395200
      8 CBC        72.0159   56.8604   42.1685 a3         1 CLA     -0.037700
      9 CBD        76.4077   57.0611   34.5934 a1         1 CLA     -0.053900
     10 NB         77.7236   60.6838   40.0536 nm         1 CLA     -0.295700
     11 OBD        74.5323   55.5899   34.1259 o2         1 CLA     -0.494600
     12 CGA        80.8990   57.9062   32.6253 c4         1 CLA      0.827000
     13 CGD        77.5436   56.0201   34.3183 c4         1 CLA      0.655300
     14 ND         75.1418   58.4459   37.6948 nm         1 CLA     -0.291600
     15 CED        78.7077   54.0225   35.1845 a3         1 CLA      0.005400
     16 CHA        76.6533   57.9309   35.8237 cs         1 CLA     -0.123800
     17 CHB        79.6393   60.7642   38.4783 aa         1 CLA     -0.291900
     18 CHC        76.2860   60.9170   42.0339 aa         1 CLA     -0.090400
     19 CHD        73.3634   58.0621   39.2891 aa         1 CLA     -0.052000
     20 CMA        81.5679   58.8185   36.6611 a3         1 CLA     -0.230700
     21 CMB        80.9868   62.5540   40.7024 a3         1 CLA     -0.180800
     22 CMC        73.8059   60.3149   43.9031 a3         1 CLA     -0.134000
     23 CMD        72.0956   56.3876   36.8670 a3         1 CLA     -0.141100
     24 C1         81.8071   55.7821   33.3364 a2         1 CLA      0.023000
     25 C1A        77.8875   58.5450   36.1763 ac         1 CLA     -0.015100
     26 C1B        78.9442   61.1330   39.6671 cr         1 CLA      0.054700
     27 C1C        75.1687   60.1523   41.5797 cn         1 CLA     -0.005600
     28 C1D        73.8861   57.9451   37.9972 ap         1 CLA     -0.047300
     29 O1A        80.8877   57.4564   31.4958 o2         1 CLA     -0.610800
     30 O1D        78.3488   55.9971   33.3839 o2         1 CLA     -0.558200
     31 C2         82.7834   55.4394   34.4120 c8         1 CLA     -0.325100
     32 C2A        79.2142   58.6057   35.4592 a1         1 CLA      0.098600
     33 C2B        79.5202   61.9513   40.6922 cb         1 CLA      0.088500
     34 C2C        74.0114   59.8255   42.4415 cb         1 CLA      0.053700
     35 C2D        73.3741   57.1725   36.8937 cb         1 CLA      0.058900
     36 O2A        81.4907   57.1859   33.6216 o1         1 CLA     -0.437200
     37 O2D        77.6579   55.0362   35.2674 o1         1 CLA     -0.357600
     38 C3         83.7996   54.5647   34.3961 c5         1 CLA      0.031200
     39 C3A        80.2324   59.5273   36.2702 a1         1 CLA      0.166800
     40 C3B        78.5506   62.0624   41.7279 cb         1 CLA      0.035000
     41 C3C        73.2095   58.9957   41.6727 cb         1 CLA     -0.089900
     42 C3D        74.4527   57.0369   36.0238 cb         1 CLA     -0.035900
     43 C4         83.6299   53.1055   34.7918 a3         1 CLA     -0.053300
     44 C4A        79.2463   59.9154   37.4074 ac         1 CLA      0.001800
     45 C4B        77.4374   61.1922   41.2624 cn         1 CLA     -0.020900
     46 C4C        73.8775   58.7542   40.4166 cr         1 CLA     -0.044400
     47 C4D        75.4959   57.8227   36.5684 c6         1 CLA     -0.046000
     48 C5         85.1691   54.9646   33.9404 a2         1 CLA     -0.070400
     49 C6         85.7278   56.1612   34.8024 a2         1 CLA      0.043900
     50 C7         85.9702   55.8307   36.2885 a2         1 CLA     -0.150000
     51 C8         87.4235   55.5638   36.6669 a1         1 CLA      0.064200
     52 C9         87.8670   54.2048   36.0357 a3         1 CLA     -0.259300
     53 C10        87.4619   55.5931   38.2733 a2         1 CLA     -0.071900
     54 C11        87.1134   56.8163   39.0308 a2         1 CLA      0.014500
     55 C12        87.3716   56.6213   40.5688 a2         1 CLA     -0.112100
     56 C13        87.0140   57.8622   41.4576 a1         1 CLA      0.089200
     57 C14        87.7313   59.1907   41.1160 a3         1 CLA     -0.239100
     58 C15        87.1438   57.5365   42.9300 a2         1 CLA     -0.102200
     59 C16        86.3131   58.3930   43.8658 a2         1 CLA      0.023900
     60 C17        86.4513   57.9244   45.3402 a2         1 CLA     -0.105700
     61 C18        85.8601   59.0107   46.4077 a1         1 CLA      0.206800
     62 C19        84.2683   59.0495   46.3791 a3         1 CLA     -0.280100
     63 C20        86.4782   58.8888   47.8254 a3         1 CLA     -0.280100
     64 NC         75.0464   59.4768   40.3168 nx         1 CLA     -0.309200
     65 MG         76.4559   59.5690   38.7388 mg         1 CLA      0.895000
     66 HMD3       72.0217   55.6509   37.7103 dc         1 CLA      0.064300
     67 HMD2       71.3551   57.1485   37.0234 dc         1 CLA      0.064300
     68 HMD1       72.0689   55.7344   35.9989 dc         1 CLA      0.064300
     69 HMC3       72.8960   60.9868   44.0042 dc         1 CLA      0.052100
     70 HMC2       73.5804   59.4955   44.5006 dc         1 CLA      0.052100
     71 HMC1       74.6356   60.9260   44.2556 dc         1 CLA      0.052100
     72 HMB3       80.9656   63.3968   41.3607 dc         1 CLA      0.063600
     73 HMB2       81.6031   61.7530   41.0979 dc         1 CLA      0.063600
     74 HMB1       81.1068   62.8755   39.7006 dc         1 CLA      0.063600
     75 HMA3       82.1314   58.7470   35.7383 dc         1 CLA      0.058300
     76 HMA2       82.0341   59.4763   37.3543 dc         1 CLA      0.058300
     77 HMA1       81.2915   57.8425   37.0412 dc         1 CLA      0.058300
     78 HED3       78.3907   53.1352   35.7500 dc         1 CLA      0.079300
     79 HED2       79.0861   53.6395   34.1365 dc         1 CLA      0.079300
     80 HED1       79.6348   54.4201   35.6510 dc         1 CLA      0.079300
     81 HBC3       71.2716   56.5184   42.9518 dc         1 CLA      0.016300
     82 HBC2       71.5868   56.4577   41.2107 dc         1 CLA      0.016300
     83 HBC1       72.9907   56.5330   42.3424 dc         1 CLA      0.016300
     84 HBB2       79.4902   63.9060   44.6341 da         1 CLA      0.183000
     85 HBB1       80.5435   62.8617   43.5151 da         1 CLA      0.183000
     86 HBA2       79.9556   59.6801   32.2655 dc         1 CLA      0.029400
     87 HBA1       81.0015   59.8441   33.6152 dc         1 CLA      0.029400
     88 HAC2       71.8440   58.6527   43.3003 dc         1 CLA      0.029300
     89 HAC1       71.1754   58.7181   41.6114 dc         1 CLA      0.029300
     90 HAA2       78.2799   58.4762   33.4221 dc         1 CLA      0.028700
     91 HAA1       78.5168   60.0828   34.0938 dc         1 CLA      0.028700
     92 H203       87.5839   58.9438   47.8510 dc         1 CLA      0.065600
     93 H202       86.1440   59.7251   48.4439 dc         1 CLA      0.065600
     94 H201       86.0595   58.0112   48.2540 dc         1 CLA      0.065600
     95 H193       83.8527   58.0559   46.2778 dc         1 CLA      0.065600
     96 H192       83.7110   59.6183   47.1039 dc         1 CLA      0.065600
     97 H191       83.9838   59.5743   45.4916 dc         1 CLA      0.065600
     98 H172       85.9286   56.9760   45.5203 dc         1 CLA      0.027600
     99 H171       87.4755   57.7982   45.6288 dc         1 CLA      0.027600
    100 H162       86.6044   59.3858   43.8723 dc         1 CLA      0.002900
    101 H161       85.2533   58.3878   43.5971 dc         1 CLA      0.002900
    102 H152       86.7880   56.5429   43.1760 dc         1 CLA      0.029100
    103 H151       88.1403   57.5775   43.1839 dc         1 CLA      0.029100
    104 H143       87.4331   59.8477   41.8901 dc         1 CLA      0.063600
    105 H142       88.7702   58.8570   41.0544 dc         1 CLA      0.063600
    106 H141       87.4669   59.4671   40.0858 dc         1 CLA      0.063600
    107 H122       86.8047   55.7213   40.9009 dc         1 CLA      0.032500
    108 H121       88.3939   56.4261   40.7196 dc         1 CLA      0.032500
    109 H112       87.7862   57.6086   38.7704 dc         1 CLA      0.006600
    110 H111       86.0713   57.0845   38.8700 dc         1 CLA      0.006600
    111 H102       86.8862   54.7312   38.7093 dc         1 CLA      0.024100
    112 H101       88.5352   55.4314   38.5142 dc         1 CLA      0.024100
    113 HHD        72.3540   57.5442   39.3669 da         1 CLA      0.174300
    114 HHC        76.2773   61.1713   43.0558 da         1 CLA      0.136800
    115 HHB        80.5641   61.2041   38.2362 da         1 CLA      0.138300
    116 HBD        76.2965   57.7821   33.7588 dc         1 CLA      0.107700
    117 HAB        77.5400   63.1251   43.3355 da         1 CLA      0.155200
    118 H93        88.8563   53.8858   36.3772 dc         1 CLA      0.069500
    119 H92        87.0781   53.4099   36.2570 dc         1 CLA      0.069500
    120 H91        87.9184   54.2744   34.9260 dc         1 CLA      0.069500
    121 H8         88.1170   56.2921   36.3293 dc         1 CLA      0.029300
    122 H72        85.5680   56.5653   36.8870 dc         1 CLA      0.044400
    123 H71        85.3763   54.9345   36.5337 dc         1 CLA      0.044400
    124 H62        86.6427   56.3842   34.3764 dc         1 CLA      0.015600
    125 H61        85.1403   57.0712   34.5949 dc         1 CLA      0.015600
    126 H52        85.9190   54.1772   33.8626 dc         1 CLA      0.033200
    127 H51        85.0110   55.2844   32.8666 dc         1 CLA      0.033200
    128 H43        84.3562   52.8048   35.4702 dc         1 CLA      0.037000
    129 H42        82.6132   52.8929   35.1763 dc         1 CLA      0.037000
    130 H41        83.7132   52.4827   33.9280 dc         1 CLA      0.037000
    131 H3A        80.4489   60.4505   35.6702 dc         1 CLA      0.041100
    132 H2A        79.4947   57.4851   35.5427 dc         1 CLA      0.083100
    133 H2         82.6397   56.0370   35.2637 da         1 CLA      0.180900
    134 H18        86.2351   59.9442   46.0437 dc         1 CLA     -0.003900
    135 H13        85.9933   58.0992   41.3190 dc         1 CLA      0.019700
    136 H12        80.9053   55.1616   33.2005 dc         1 CLA      0.120400
    137 H11        82.2593   55.7843   32.3533 dc         1 CLA      0.120400
    138 C1         68.8061   61.7399   49.4468 Z1         2 LUT      0.509236
    139 C2         67.2838   61.4938   49.9725 Z2         2 LUT     -0.434695
    140 C3         66.5045   62.7704   50.2664 Z3         2 LUT      0.437453
    141 O3         66.1419   62.9486   51.6552 S1         2 LUT     -0.547129
    142 C4         67.0695   64.0656   49.6584 Z4         2 LUT     -0.468603
    143 C5         67.7642   63.8753   48.4001 Z5         2 LUT      0.279246
    144 C6         68.6943   62.8483   48.3002 Z6         2 LUT     -0.305473
    145 C7         69.1076   62.2785   47.0462 Z7         2 LUT      0.069402
    146 C8         70.1681   62.8304   46.4311 Z8         2 LUT     -0.191631
    147 C9         70.5204   62.6731   45.0174 Z9         2 LUT      0.196698
    148 C10        71.5635   63.4835   44.6067 Y1         2 LUT     -0.208611
    149 C11        72.4251   63.4889   43.4076 Y2         2 LUT      0.030784
    150 C12        73.5902   64.2631   43.1104 Y3         2 LUT     -0.220316
    151 C13        74.4269   64.1257   41.9734 Y4         2 LUT      0.215937
    152 C14        75.5928   64.8566   41.8373 Y5         2 LUT     -0.185793
    153 C15        76.6382   64.6817   40.8270 Y6         2 LUT     -0.057835
    154 C16        69.3516   60.3771   48.9847 Y7         2 LUT     -0.405615
    155 C17        69.7192   62.2046   50.6570 Y7         2 LUT     -0.405615
    156 C18        67.2070   64.6446   47.2354 Y9         2 LUT     -0.369639
    157 C19        69.8528   61.6239   44.1480 W1         2 LUT     -0.333362
    158 C20        73.8696   63.2675   40.8384 W2         2 LUT     -0.323439
    159 C21        88.0586   65.4977   34.8386 Z1         2 LUT      0.406104
    160 C22        88.5479   65.0263   33.5294 Z2         2 LUT     -0.404965
    161 C23        88.6410   66.0251   32.4981 Z3         2 LUT      0.391255
    162 O23        89.1079   65.3685   31.3321 S1         2 LUT     -0.528210
    163 C24        87.3791   66.8314   32.2863 W6         2 LUT     -0.258361
    164 C25        86.3458   66.8221   33.1789 Z5         2 LUT      0.133546
    165 C26        86.5205   66.0738   34.5595 W8         2 LUT     -0.147008
    166 C27        85.9700   66.8937   35.7096 Z7         2 LUT      0.023843
    167 C28        84.7702   66.4575   36.1850 Z8         2 LUT     -0.216987
    168 C29        84.0921   66.9046   37.3900 Z9         2 LUT      0.206524
    169 C30        82.9124   66.2266   37.6964 Y1         2 LUT     -0.215556
    170 C31        82.1800   66.4914   38.8798 Y2         2 LUT      0.025142
    171 C32        80.9964   65.8596   39.1248 Y3         2 LUT     -0.212209
    172 C33        80.1530   65.9465   40.2612 Y4         2 LUT      0.240937
    173 C34        78.9638   65.2438   40.2154 Y5         2 LUT     -0.218862
    174 C35        77.8658   65.2542   41.0959 Y6         2 LUT     -0.023547
    175 C36        89.0079   66.5882   35.5479 Y7         2 LUT     -0.393485
    176 C37        88.0254   64.3831   35.8472 Y7         2 LUT     -0.393485
    177 C38        85.0848   67.4796   32.8360 Y9         2 LUT     -0.387526
    178 C39        84.6257   67.9605   38.3454 W1         2 LUT     -0.322618
    179 C40        80.5448   67.0322   41.1514 W2         2 LUT     -0.358472
    180 H403       80.1837   67.9793   40.7743 R7         2 LUT      0.097720
    181 H402       80.0219   66.8812   42.0895 R7         2 LUT      0.097720
    182 H401       81.6234   67.0732   41.4954 R7         2 LUT      0.097720
    183 H393       83.7947   68.7244   38.5197 R4         2 LUT      0.082505
    184 H392       84.9522   67.5827   39.3125 R4         2 LUT      0.082505
    185 H391       85.3939   68.5675   37.9231 R4         2 LUT      0.082505
    186 H383       84.3572   67.7390   33.6726 R1         2 LUT      0.104030
    187 H382       85.2539   68.3569   32.1678 R1         2 LUT      0.104030
    188 H381       84.4286   66.8593   32.2776 R1         2 LUT      0.104030
    189 H373       87.4267   63.5786   35.5057 T4         2 LUT      0.089537
    190 H372       88.9630   63.9064   36.1380 T4         2 LUT      0.089537
    191 H371       87.6346   64.6557   36.8480 T4         2 LUT      0.089537
    192 H363       88.6651   66.8362   36.5757 T4         2 LUT      0.089537
    193 H362       90.0629   66.2257   35.6236 T4         2 LUT      0.089537
    194 H361       88.9670   67.5186   34.9937 T4         2 LUT      0.089537
    195 H222       89.5620   64.6167   33.6632 U2         2 LUT      0.127376
    196 H221       87.9823   64.1301   33.1774 U2         2 LUT      0.127376
    197 H203       72.9140   63.6414   40.5187 R7         2 LUT      0.087068
    198 H202       74.5035   63.0835   39.9603 R7         2 LUT      0.087068
    199 H201       73.5927   62.3183   41.2542 R7         2 LUT      0.087068
    200 H193       70.0168   61.7249   43.1385 R4         2 LUT      0.089716
    201 H192       70.0420   60.5879   44.5280 R4         2 LUT      0.089716
    202 H191       68.7843   61.8022   44.1086 R4         2 LUT      0.089716
    203 H183       67.5392   65.7130   47.1317 R1         2 LUT      0.094572
    204 H182       67.4574   64.1358   46.2959 R1         2 LUT      0.094572
    205 H181       66.1372   64.6752   47.2334 R1         2 LUT      0.094572
    206 H173       70.7854   62.2481   50.3923 T4         2 LUT      0.093752
    207 H172       69.4463   63.1708   51.0023 T4         2 LUT      0.093752
    208 H171       69.7129   61.4799   51.4762 T4         2 LUT      0.093752
    209 H163       68.6980   60.0470   48.1654 T4         2 LUT      0.093752
    210 H162       70.3757   60.4015   48.5890 T4         2 LUT      0.093752
    211 H161       69.2430   59.6883   49.7923 T4         2 LUT      0.093752
    212 HO3        66.7161   62.4496   52.3116 Q1         2 LUT      0.300121
    213 H8         70.7797   63.5925   46.9665 U7         2 LUT      0.080784
    214 H7         68.3614   61.6557   46.4681 U6         2 LUT      0.042190
    215 H42        66.2700   64.8419   49.5990 U5         2 LUT      0.145166
    216 H41        67.8981   64.4322   50.2909 U5         2 LUT      0.145166
    217 H35        78.0477   65.7327   42.0662 T3         2 LUT      0.077919
    218 H34        78.6260   64.6772   39.3722 T2         2 LUT      0.073626
    219 H32        80.7367   65.1858   38.3372 T1         2 LUT      0.092510
    220 H31        82.5041   67.2324   39.6157 U9         2 LUT      0.070048
    221 H30        82.5816   65.3753   37.1517 U8         2 LUT      0.085442
    222 H3         65.5499   62.6316   49.7562 U3         2 LUT     -0.031596
    223 H28        84.3338   65.6120   35.6221 U7         2 LUT      0.084728
    224 H27        86.6021   67.6565   36.1076 U6         2 LUT      0.087291
    225 H26        85.9600   65.1287   34.3671 Q6         2 LUT      0.075325
    226 H24        87.3455   67.5639   31.4524 Q5         2 LUT      0.094482
    227 H23        89.4488   66.7182   32.8611 U3         2 LUT     -0.024869
    228 H22        66.7413   60.9012   49.2139 U2         2 LUT      0.127376
    229 H21        67.3513   60.8116   50.7612 U2         2 LUT      0.127376
    230 H15        76.4724   64.1451   39.9580 T3         2 LUT      0.093200
    231 H14        75.8409   65.6532   42.6065 T2         2 LUT      0.068865
    232 H12        74.0959   64.9447   43.7995 T1         2 LUT      0.095507
    233 H11        72.1508   62.7726   42.6530 U9         2 LUT      0.068930
    234 H10        71.9683   64.1979   45.3474 U8         2 LUT      0.083911
    235 H1         89.2500   65.8982   30.5435 Q1         2 LUT      0.297311
@<TRIPOS>BOND
    1     6     1 1
    2     7     2 1
    3     8     3 1
    4     9     4 1
    5    11     4 1
    6    12     6 1
    7    13     9 1
    8    16     9 1
    9    25     5 1
   10    25    16 1
   11    26    10 1
   12    26    17 1
   13    27    18 1
   14    28    14 1
   15    28    19 1
   16    29    12 1
   17    30    13 1
   18    31    24 1
   19    32     1 1
   20    32    25 1
   21    33    21 1
   22    33    26 1
   23    34    22 1
   24    34    27 1
   25    35    23 1
   26    35    28 1
   27    36    12 1
   28    36    24 1
   29    37    13 1
   30    37    15 1
   31    38    31 1
   32    39    20 1
   33    39    32 1
   34    40     2 1
   35    40    33 1
   36    41     3 1
   37    41    34 1
   38    42     4 1
   39    42    35 1
   40    43    38 1
   41    44     5 1
   42    44    17 1
   43    44    39 1
   44    45    10 1
   45    45    18 1
   46    45    40 1
   47    46    19 1
   48    46    41 1
   49    47    14 1
   50    47    16 1
   51    47    42 1
   52    48    38 1
   53    49    48 1
   54    50    49 1
   55    51    50 1
   56    52    51 1
   57    53    51 1
   58    54    53 1
   59    55    54 1
   60    56    55 1
   61    57    56 1
   62    58    56 1
   63    59    58 1
   64    60    59 1
   65    61    60 1
   66    62    61 1
   67    63    61 1
   68    64    27 1
   69    64    46 1
   70    65     5 1
   71    65    10 1
   72    65    64 1
   73    65    14 1
   74    66    23 1
   75    67    23 1
   76    68    23 1
   77    69    22 1
   78    70    22 1
   79    71    22 1
   80    72    21 1
   81    73    21 1
   82    74    21 1
   83    75    20 1
   84    76    20 1
   85    77    20 1
   86    78    15 1
   87    79    15 1
   88    80    15 1
   89    81     8 1
   90    82     8 1
   91    83     8 1
   92    84     7 1
   93    85     7 1
   94    86     6 1
   95    87     6 1
   96    88     3 1
   97    89     3 1
   98    90     1 1
   99    91     1 1
  100    92    63 1
  101    93    63 1
  102    94    63 1
  103    95    62 1
  104    96    62 1
  105    97    62 1
  106    98    60 1
  107    99    60 1
  108   100    59 1
  109   101    59 1
  110   102    58 1
  111   103    58 1
  112   104    57 1
  113   105    57 1
  114   106    57 1
  115   107    55 1
  116   108    55 1
  117   109    54 1
  118   110    54 1
  119   111    53 1
  120   112    53 1
  121   113    19 1
  122   114    18 1
  123   115    17 1
  124   116     9 1
  125   117     2 1
  126   118    52 1
  127   119    52 1
  128   120    52 1
  129   121    51 1
  130   122    50 1
  131   123    50 1
  132   124    49 1
  133   125    49 1
  134   126    48 1
  135   127    48 1
  136   128    43 1
  137   129    43 1
  138   130    43 1
  139   131    39 1
  140   132    32 1
  141   133    31 1
  142   134    61 1
  143   135    56 1
  144   136    24 1
  145   137    24 1
  146   139   138 1
  147   140   139 1
  148   141   140 1
  149   142   140 1
  150   143   142 1
  151   144   138 1
  152   144   143 1
  153   145   144 1
  154   146   145 1
  155   147   146 1
  156   148   147 1
  157   149   148 1
  158   150   149 1
  159   151   150 1
  160   152   151 1
  161   153   152 1
  162   154   138 1
  163   155   138 1
  164   156   143 1
  165   157   147 1
  166   158   151 1
  167   160   159 1
  168   161   160 1
  169   162   161 1
  170   163   161 1
  171   164   163 1
  172   165   159 1
  173   165   164 1
  174   166   165 1
  175   167   166 1
  176   168   167 1
  177   169   168 1
  178   170   169 1
  179   171   170 1
  180   172   171 1
  181   173   172 1
  182   174   153 1
  183   174   173 1
  184   175   159 1
  185   176   159 1
  186   177   164 1
  187   178   168 1
  188   179   172 1
  189   180   179 1
  190   181   179 1
  191   182   179 1
  192   183   178 1
  193   184   178 1
  194   185   178 1
  195   186   177 1
  196   187   177 1
  197   188   177 1
  198   189   176 1
  199   190   176 1
  200   191   176 1
  201   192   175 1
  202   193   175 1
  203   194   175 1
  204   195   160 1
  205   196   160 1
  206   197   158 1
  207   198   158 1
  208   199   158 1
  209   200   157 1
  210   201   157 1
  211   202   157 1
  212   203   156 1
  213   204   156 1
  214   205   156 1
  215   206   155 1
  216   207   155 1
  217   208   155 1
  218   209   154 1
  219   210   154 1
  220   211   154 1
  221   212   141 1
  222   213   146 1
  223   214   145 1
  224   215   142 1
  225   216   142 1
  226   217   174 1
  227   218   173 1
  228   219   171 1
  229   220   170 1
  230   221   169 1
  231   222   140 1
  232   223   167 1
  233   224   166 1
  234   225   165 1
  235   226   163 1
  236   227   161 1
  237   228   139 1
  238   229   139 1
  239   230   153 1
  240   231   152 1
  241   232   150 1
  242   233   149 1
  243   234   148 1
  244   235   162 1
  245   65    153 1
  246   65    174 1
@<TRIPOS>SUBSTRUCTURE
      1 CLA               1 ****               0 ****  **** 
      2 LUT             138 ****               0 ****  **** 
