@<TRIPOS>MOLECULE
Cpptraj generated mol2 file.
  235   246     2     0     0
SMALL
USER_CHARGES


@<TRIPOS>ATOM
      1 CAA        78.3335   58.1432   35.0975 a2         1 CLA     -0.055900
      2 CAB        77.8205   62.2458   44.0652 c8         1 CLA     -0.148500
      3 CAC        71.3163   57.4447   43.3134 a2         1 CLA     -0.012600
      4 CAD        74.3354   55.2320   36.2466 ck         1 CLA      0.398800
      5 NA         77.2440   58.5011   38.5388 ns         1 CLA     -0.225500
      6 CBA        79.6453   58.0237   34.2729 a2         1 CLA     -0.135000
      7 CBB        78.9415   62.5522   44.7297 c0         1 CLA     -0.395200
      8 CBC        71.5725   55.9967   43.7860 a3         1 CLA     -0.037700
      9 CBD        75.8334   55.7728   36.0458 a1         1 CLA     -0.053900
     10 NB         76.9325   60.1828   41.0766 nm         1 CLA     -0.295700
     11 OBD        73.7740   54.5215   35.4121 o2         1 CLA     -0.494600
     12 CGA        80.2683   56.6649   34.1459 c4         1 CLA      0.827000
     13 CGD        76.7669   54.6151   35.9738 c4         1 CLA      0.655300
     14 ND         74.5252   57.3661   39.0557 nm         1 CLA     -0.291600
     15 CED        77.5648   52.7642   37.1422 a3         1 CLA      0.005400
     16 CHA        76.1193   56.8300   37.1446 cs         1 CLA     -0.123800
     17 CHB        78.7955   60.1609   39.4638 aa         1 CLA     -0.291900
     18 CHC        75.4730   60.4194   43.0214 aa         1 CLA     -0.090400
     19 CHD        72.7335   57.1915   40.6689 aa         1 CLA     -0.052000
     20 CMA        80.6004   57.9527   38.0849 a3         1 CLA     -0.230700
     21 CMB        80.0806   62.0395   41.4977 a3         1 CLA     -0.180800
     22 CMC        73.2729   59.6110   45.0031 a3         1 CLA     -0.134000
     23 CMD        71.5585   55.1933   38.4302 a3         1 CLA     -0.141100
     24 C1         81.8207   55.1818   35.2394 a2         1 CLA      0.023000
     25 C1A        77.2119   57.6965   37.3951 ac         1 CLA     -0.015100
     26 C1B        78.1491   60.5596   40.6721 cr         1 CLA      0.054700
     27 C1C        74.4050   59.5826   42.7298 cn         1 CLA     -0.005600
     28 C1D        73.3620   56.7927   39.4206 ap         1 CLA     -0.047300
     29 O1A        80.0709   55.8494   33.2729 o2         1 CLA     -0.610800
     30 O1D        77.2347   54.1602   34.9173 o2         1 CLA     -0.558200
     31 C2         82.4825   54.9891   36.5700 c8         1 CLA     -0.325100
     32 C2A        78.4999   57.7563   36.6115 a1         1 CLA      0.098600
     33 C2B        78.6674   61.5507   41.6210 cb         1 CLA      0.088500
     34 C2C        73.3452   59.1097   43.6016 cb         1 CLA      0.053700
     35 C2D        72.8808   55.8646   38.4463 cb         1 CLA      0.058900
     36 O2A        81.0678   56.4358   35.2385 o1         1 CLA     -0.437200
     37 O2D        77.0081   54.0952   37.2527 o1         1 CLA     -0.357600
     38 C3         82.8820   53.8316   37.1380 c5         1 CLA      0.031200
     39 C3A        79.3202   58.6908   37.4904 a1         1 CLA      0.166800
     40 C3B        77.7433   61.5877   42.7304 cb         1 CLA      0.035000
     41 C3C        72.5143   58.1930   42.8702 cb         1 CLA     -0.089900
     42 C3D        73.9794   55.8300   37.5261 cb         1 CLA     -0.035900
     43 C4         82.0043   52.7319   37.7537 a3         1 CLA     -0.053300
     44 C4A        78.4133   59.1847   38.5673 ac         1 CLA      0.001800
     45 C4B        76.6277   60.7388   42.2646 cn         1 CLA     -0.020900
     46 C4C        73.1664   58.0813   41.6174 cr         1 CLA     -0.044400
     47 C4D        74.9653   56.7102   37.9534 c6         1 CLA     -0.046000
     48 C5         84.3161   53.4293   36.9406 a2         1 CLA     -0.070400
     49 C6         85.3966   54.3927   37.3783 a2         1 CLA      0.043900
     50 C7         85.3072   54.9265   38.8430 a2         1 CLA     -0.150000
     51 C8         86.3447   56.0292   39.2700 a1         1 CLA      0.064200
     52 C9         87.7460   55.4384   39.0636 a3         1 CLA     -0.259300
     53 C10        86.1003   56.5521   40.7378 a2         1 CLA     -0.071900
     54 C11        84.7225   57.1050   41.0565 a2         1 CLA      0.014500
     55 C12        84.7204   57.9592   42.4060 a2         1 CLA     -0.112100
     56 C13        85.4456   57.4028   43.6044 a1         1 CLA      0.089200
     57 C14        84.8092   56.0518   44.0764 a3         1 CLA     -0.239100
     58 C15        85.5323   58.4690   44.6774 a2         1 CLA     -0.102200
     59 C16        84.2152   58.9958   45.1992 a2         1 CLA      0.023900
     60 C17        84.5467   59.7467   46.4328 a2         1 CLA     -0.105700
     61 C18        83.6519   60.9808   46.7700 a1         1 CLA      0.206800
     62 C19        82.1843   60.6978   46.7565 a3         1 CLA     -0.280100
     63 C20        84.1438   61.5757   48.1394 a3         1 CLA     -0.280100
     64 NC         74.3257   58.8464   41.5864 nx         1 CLA     -0.309200
     65 MG         75.7263   58.8871   40.0072 mg         1 CLA      0.895000
     66 HMD3       71.4929   54.5186   39.2890 dc         1 CLA      0.064300
     67 HMD2       70.8520   56.0236   38.3967 dc         1 CLA      0.064300
     68 HMD1       71.3950   54.6143   37.4845 dc         1 CLA      0.064300
     69 HMC3       73.9885   59.0011   45.5778 dc         1 CLA      0.052100
     70 HMC2       73.3566   60.7010   45.1016 dc         1 CLA      0.052100
     71 HMC1       72.2774   59.3727   45.5180 dc         1 CLA      0.052100
     72 HMB3       80.2435   62.4185   40.4633 dc         1 CLA      0.063600
     73 HMB2       80.2187   62.8439   42.1889 dc         1 CLA      0.063600
     74 HMB1       80.7476   61.2145   41.7165 dc         1 CLA      0.063600
     75 HMA3       80.3350   56.9381   38.4883 dc         1 CLA      0.058300
     76 HMA2       81.3873   57.7409   37.3041 dc         1 CLA      0.058300
     77 HMA1       81.0182   58.5692   38.8537 dc         1 CLA      0.058300
     78 HED3       77.7020   52.3179   38.1139 dc         1 CLA      0.079300
     79 HED2       76.9593   52.1690   36.4444 dc         1 CLA      0.079300
     80 HED1       78.5583   52.9491   36.7622 dc         1 CLA      0.079300
     81 HBC3       72.3333   56.0514   44.5005 dc         1 CLA      0.016300
     82 HBC2       70.6565   55.6116   44.2065 dc         1 CLA      0.016300
     83 HBC1       71.9675   55.4337   42.9608 dc         1 CLA      0.016300
     84 HBB2       78.9962   62.9270   45.7627 da         1 CLA      0.183000
     85 HBB1       79.9785   62.2932   44.3019 da         1 CLA      0.183000
     86 HBA2       79.3970   58.3707   33.3034 dc         1 CLA      0.029400
     87 HBA1       80.2922   58.7530   34.7940 dc         1 CLA      0.029400
     88 HAC2       70.8936   57.8739   44.2031 dc         1 CLA      0.029300
     89 HAC1       70.5727   57.4720   42.5363 dc         1 CLA      0.029300
     90 HAA2       77.6064   57.4693   34.6199 dc         1 CLA      0.028700
     91 HAA1       78.0149   59.2180   34.9949 dc         1 CLA      0.028700
     92 H203       83.9743   60.9594   49.0109 dc         1 CLA      0.065600
     93 H202       85.1499   61.8497   48.2131 dc         1 CLA      0.065600
     94 H201       83.6351   62.5388   48.3616 dc         1 CLA      0.065600
     95 H193       81.6473   61.6786   46.9075 dc         1 CLA      0.065600
     96 H192       81.9369   60.3223   45.7351 dc         1 CLA      0.065600
     97 H191       81.9965   59.9362   47.5223 dc         1 CLA      0.065600
     98 H172       84.4679   59.0882   47.2980 dc         1 CLA      0.027600
     99 H171       85.5386   60.1904   46.3860 dc         1 CLA      0.027600
    100 H162       83.8066   59.6264   44.4446 dc         1 CLA      0.002900
    101 H161       83.4804   58.2563   45.3533 dc         1 CLA      0.002900
    102 H152       86.1876   58.1289   45.4890 dc         1 CLA      0.029100
    103 H151       86.1406   59.2860   44.3478 dc         1 CLA      0.029100
    104 H143       83.8040   56.2656   44.4186 dc         1 CLA      0.063600
    105 H142       85.0347   55.2550   43.3702 dc         1 CLA      0.063600
    106 H141       85.2742   55.8490   45.0143 dc         1 CLA      0.063600
    107 H122       85.2034   58.8502   42.0004 dc         1 CLA      0.032500
    108 H121       83.7144   58.2639   42.6650 dc         1 CLA      0.032500
    109 H112       84.3522   57.7400   40.2528 dc         1 CLA      0.006600
    110 H111       83.9857   56.3452   41.3046 dc         1 CLA      0.006600
    111 H102       86.3102   55.6860   41.4680 dc         1 CLA      0.024100
    112 H101       86.8136   57.2676   41.0917 dc         1 CLA      0.024100
    113 HHD        71.8027   56.6643   40.9227 da         1 CLA      0.174300
    114 HHC        75.3458   60.8450   44.1271 da         1 CLA      0.136800
    115 HHB        79.7576   60.6524   39.1349 da         1 CLA      0.138300
    116 HBD        75.8503   56.1844   35.0049 dc         1 CLA      0.107700
    117 HAB        76.8405   62.3047   44.5684 da         1 CLA      0.155200
    118 H93        88.0373   55.4278   37.9999 dc         1 CLA      0.069500
    119 H92        88.4752   56.1634   39.4669 dc         1 CLA      0.069500
    120 H91        88.0059   54.4834   39.4841 dc         1 CLA      0.069500
    121 H8         86.2314   56.9287   38.6087 dc         1 CLA      0.029300
    122 H72        84.2529   55.2373   39.0202 dc         1 CLA      0.044400
    123 H71        85.4665   54.0541   39.4922 dc         1 CLA      0.044400
    124 H62        86.3866   54.0278   37.1349 dc         1 CLA      0.015600
    125 H61        85.2365   55.3188   36.8109 dc         1 CLA      0.015600
    126 H52        84.5123   52.4221   37.4120 dc         1 CLA      0.033200
    127 H51        84.4880   53.2113   35.8591 dc         1 CLA      0.033200
    128 H43        82.2510   52.3420   38.7103 dc         1 CLA      0.037000
    129 H42        80.9986   53.1128   38.0486 dc         1 CLA      0.037000
    130 H41        81.8938   51.8701   37.1375 dc         1 CLA      0.037000
    131 H3A        79.7370   59.5031   36.8665 dc         1 CLA      0.041100
    132 H2A        78.8285   56.7100   36.7323 dc         1 CLA      0.083100
    133 H2         82.6598   55.8844   37.2275 da         1 CLA      0.180900
    134 H18        83.8660   61.7596   45.9936 dc         1 CLA     -0.003900
    135 H13        86.5131   57.1960   43.3582 dc         1 CLA      0.019700
    136 H12        81.1665   54.3821   35.0064 dc         1 CLA      0.120400
    137 H11        82.5986   55.3250   34.4953 dc         1 CLA      0.120400
    138 C1         67.6242   61.2224   50.3184 Z1         2 LUT      0.509236
    139 C2         66.3180   61.2882   51.1319 Z2         2 LUT     -0.434695
    140 C3         65.5531   62.5780   51.1884 Z3         2 LUT      0.437453
    141 O3         65.6520   63.2080   52.5193 S1         2 LUT     -0.547129
    142 C4         66.0623   63.5967   50.1902 Z4         2 LUT     -0.468603
    143 C5         66.7106   63.0271   48.9086 Z5         2 LUT      0.279246
    144 C6         67.5065   61.9498   48.9955 Z6         2 LUT     -0.305473
    145 C7         67.9733   61.2850   47.7356 Z7         2 LUT      0.069402
    146 C8         69.1767   61.5467   47.0921 Z8         2 LUT     -0.191631
    147 C9         69.6826   61.2776   45.8171 Z9         2 LUT      0.196698
    148 C10        70.5973   62.1093   45.2880 Y1         2 LUT     -0.208611
    149 C11        71.2978   62.0202   43.9882 Y2         2 LUT      0.030784
    150 C12        72.2171   62.9712   43.6861 Y3         2 LUT     -0.220316
    151 C13        73.1615   62.9786   42.5477 Y4         2 LUT      0.215937
    152 C14        74.2537   63.7924   42.6257 Y5         2 LUT     -0.185793
    153 C15        75.3168   63.9674   41.7174 Y6         2 LUT     -0.057835
    154 C16        67.9359   59.7298   50.1686 Y7         2 LUT     -0.405615
    155 C17        68.7448   61.9508   51.0215 Y7         2 LUT     -0.405615
    156 C18        66.4066   63.8029   47.6178 Y9         2 LUT     -0.369639
    157 C19        69.2851   60.0264   45.0722 W1         2 LUT     -0.333362
    158 C20        72.8130   62.3039   41.2945 W2         2 LUT     -0.323439
    159 C21        86.8417   65.3730   35.9701 Z1         2 LUT      0.406104
    160 C22        87.5506   64.7237   34.7093 Z2         2 LUT     -0.404965
    161 C23        87.5683   65.6338   33.3896 Z3         2 LUT      0.391255
    162 O23        88.0516   64.7266   32.3993 S1         2 LUT     -0.528210
    163 C24        86.2775   66.3490   33.2440 W6         2 LUT     -0.258361
    164 C25        85.2977   66.5054   34.1147 Z5         2 LUT      0.133546
    165 C26        85.4721   65.9282   35.5213 W8         2 LUT     -0.147008
    166 C27        84.7418   66.5093   36.6720 Z7         2 LUT      0.023843
    167 C28        83.5219   66.0824   37.1169 Z8         2 LUT     -0.216987
    168 C29        82.7947   66.6118   38.1993 Z9         2 LUT      0.206524
    169 C30        81.6110   66.0201   38.6642 Y1         2 LUT     -0.215556
    170 C31        80.7002   66.2371   39.7579 Y2         2 LUT      0.025142
    171 C32        79.5741   65.4683   39.9172 Y3         2 LUT     -0.212209
    172 C33        78.6337   65.6004   40.9703 Y4         2 LUT      0.240937
    173 C34        77.4154   64.9748   40.9180 Y5         2 LUT     -0.218862
    174 C35        76.3751   64.8102   41.9616 Y6         2 LUT     -0.023547
    175 C36        87.7036   66.6333   36.2756 Y7         2 LUT     -0.393485
    176 C37        86.9263   64.3611   37.1450 Y7         2 LUT     -0.393485
    177 C38        83.9591   67.1154   33.7215 Y9         2 LUT     -0.387526
    178 C39        83.2133   67.8654   38.8467 W1         2 LUT     -0.322618
    179 C40        79.0352   66.3230   42.2451 W2         2 LUT     -0.358472
    180 H403       79.8238   65.7922   42.8117 R7         2 LUT      0.097720
    181 H402       79.5095   67.3276   42.2482 R7         2 LUT      0.097720
    182 H401       78.1878   66.4926   42.9018 R7         2 LUT      0.097720
    183 H393       82.3403   68.4287   39.2128 R4         2 LUT      0.082505
    184 H392       83.9643   67.7778   39.6312 R4         2 LUT      0.082505
    185 H391       83.7403   68.6066   38.1625 R4         2 LUT      0.082505
    186 H383       84.2792   68.1717   33.4096 R1         2 LUT      0.104030
    187 H382       83.4997   66.6238   32.8134 R1         2 LUT      0.104030
    188 H381       83.3768   67.2881   34.6195 R1         2 LUT      0.104030
    189 H373       86.6174   64.8088   38.0883 T4         2 LUT      0.089537
    190 H372       86.3418   63.4017   36.9287 T4         2 LUT      0.089537
    191 H371       87.9270   64.0678   37.4460 T4         2 LUT      0.089537
    192 H363       88.7104   66.3349   36.5535 T4         2 LUT      0.089537
    193 H362       87.6773   67.3411   35.4228 T4         2 LUT      0.089537
    194 H361       87.3628   67.1055   37.1873 T4         2 LUT      0.089537
    195 H222       88.5224   64.3258   34.8791 U2         2 LUT      0.127376
    196 H221       87.0655   63.8520   34.4566 U2         2 LUT      0.127376
    197 H203       72.0289   62.8483   40.7665 R7         2 LUT      0.087068
    198 H202       73.6227   62.3296   40.5499 R7         2 LUT      0.087068
    199 H201       72.6169   61.2699   41.4433 R7         2 LUT      0.087068
    200 H193       70.0310   59.6408   44.4406 R4         2 LUT      0.089716
    201 H192       68.8756   59.3067   45.7634 R4         2 LUT      0.089716
    202 H191       68.5225   60.2285   44.4518 R4         2 LUT      0.089716
    203 H183       65.3963   63.5762   47.3878 R1         2 LUT      0.094572
    204 H182       66.4633   64.8301   47.8053 R1         2 LUT      0.094572
    205 H181       67.0545   63.4063   46.8343 R1         2 LUT      0.094572
    206 H173       68.4453   62.9897   51.2237 T4         2 LUT      0.093752
    207 H172       68.8631   61.5213   52.0670 T4         2 LUT      0.093752
    208 H171       69.6543   61.8972   50.4125 T4         2 LUT      0.093752
    209 H163       67.9714   59.3454   51.2098 T4         2 LUT      0.093752
    210 H162       67.2536   59.2364   49.5380 T4         2 LUT      0.093752
    211 H161       68.9249   59.4823   49.6838 T4         2 LUT      0.093752
    212 HO3        65.1340   62.7950   53.1921 Q1         2 LUT      0.300121
    213 H8         69.7211   62.2622   47.7196 U7         2 LUT      0.080784
    214 H7         67.2596   60.8181   47.1081 U6         2 LUT      0.042190
    215 H42        65.2126   64.2521   49.8289 U5         2 LUT      0.145166
    216 H41        66.7992   64.2938   50.6025 U5         2 LUT      0.145166
    217 H35        76.4667   65.2426   42.9488 T3         2 LUT      0.077919
    218 H34        77.2840   64.3592   40.0398 T2         2 LUT      0.073626
    219 H32        79.3180   64.7234   39.1535 T1         2 LUT      0.092510
    220 H31        80.9412   66.9133   40.5481 U9         2 LUT      0.070048
    221 H30        81.2384   65.1883   37.9896 U8         2 LUT      0.085442
    222 H3         64.4849   62.3847   50.9967 U3         2 LUT     -0.031596
    223 H28        83.2026   65.2121   36.6965 U7         2 LUT      0.084728
    224 H27        85.2568   67.2368   37.2380 U6         2 LUT      0.087291
    225 H26        84.8831   64.9412   35.4094 Q6         2 LUT      0.075325
    226 H24        86.0609   66.8011   32.2238 Q5         2 LUT      0.094482
    227 H23        88.4172   66.3219   33.5511 U3         2 LUT     -0.024869
    228 H22        65.6758   60.5728   50.7345 U2         2 LUT      0.127376
    229 H21        66.4202   60.9651   52.1845 U2         2 LUT      0.127376
    230 H15        75.5079   63.4207   40.7418 T3         2 LUT      0.093200
    231 H14        74.3180   64.4403   43.4741 T2         2 LUT      0.068865
    232 H12        72.5112   63.7187   44.3585 T1         2 LUT      0.095507
    233 H11        71.0333   61.2400   43.2339 U9         2 LUT      0.068930
    234 H10        70.9344   63.0178   45.8623 U8         2 LUT      0.083911
    235 H1         87.9596   65.0621   31.4861 Q1         2 LUT      0.297311
@<TRIPOS>BOND
    1     6     1 1
    2     7     2 1
    3     8     3 1
    4     9     4 1
    5    11     4 1
    6    12     6 1
    7    13     9 1
    8    16     9 1
    9    25     5 1
   10    25    16 1
   11    26    10 1
   12    26    17 1
   13    27    18 1
   14    28    14 1
   15    28    19 1
   16    29    12 1
   17    30    13 1
   18    31    24 1
   19    32     1 1
   20    32    25 1
   21    33    21 1
   22    33    26 1
   23    34    22 1
   24    34    27 1
   25    35    23 1
   26    35    28 1
   27    36    12 1
   28    36    24 1
   29    37    13 1
   30    37    15 1
   31    38    31 1
   32    39    20 1
   33    39    32 1
   34    40     2 1
   35    40    33 1
   36    41     3 1
   37    41    34 1
   38    42     4 1
   39    42    35 1
   40    43    38 1
   41    44     5 1
   42    44    17 1
   43    44    39 1
   44    45    10 1
   45    45    18 1
   46    45    40 1
   47    46    19 1
   48    46    41 1
   49    47    14 1
   50    47    16 1
   51    47    42 1
   52    48    38 1
   53    49    48 1
   54    50    49 1
   55    51    50 1
   56    52    51 1
   57    53    51 1
   58    54    53 1
   59    55    54 1
   60    56    55 1
   61    57    56 1
   62    58    56 1
   63    59    58 1
   64    60    59 1
   65    61    60 1
   66    62    61 1
   67    63    61 1
   68    64    27 1
   69    64    46 1
   70    65     5 1
   71    65    10 1
   72    65    64 1
   73    65    14 1
   74    66    23 1
   75    67    23 1
   76    68    23 1
   77    69    22 1
   78    70    22 1
   79    71    22 1
   80    72    21 1
   81    73    21 1
   82    74    21 1
   83    75    20 1
   84    76    20 1
   85    77    20 1
   86    78    15 1
   87    79    15 1
   88    80    15 1
   89    81     8 1
   90    82     8 1
   91    83     8 1
   92    84     7 1
   93    85     7 1
   94    86     6 1
   95    87     6 1
   96    88     3 1
   97    89     3 1
   98    90     1 1
   99    91     1 1
  100    92    63 1
  101    93    63 1
  102    94    63 1
  103    95    62 1
  104    96    62 1
  105    97    62 1
  106    98    60 1
  107    99    60 1
  108   100    59 1
  109   101    59 1
  110   102    58 1
  111   103    58 1
  112   104    57 1
  113   105    57 1
  114   106    57 1
  115   107    55 1
  116   108    55 1
  117   109    54 1
  118   110    54 1
  119   111    53 1
  120   112    53 1
  121   113    19 1
  122   114    18 1
  123   115    17 1
  124   116     9 1
  125   117     2 1
  126   118    52 1
  127   119    52 1
  128   120    52 1
  129   121    51 1
  130   122    50 1
  131   123    50 1
  132   124    49 1
  133   125    49 1
  134   126    48 1
  135   127    48 1
  136   128    43 1
  137   129    43 1
  138   130    43 1
  139   131    39 1
  140   132    32 1
  141   133    31 1
  142   134    61 1
  143   135    56 1
  144   136    24 1
  145   137    24 1
  146   139   138 1
  147   140   139 1
  148   141   140 1
  149   142   140 1
  150   143   142 1
  151   144   138 1
  152   144   143 1
  153   145   144 1
  154   146   145 1
  155   147   146 1
  156   148   147 1
  157   149   148 1
  158   150   149 1
  159   151   150 1
  160   152   151 1
  161   153   152 1
  162   154   138 1
  163   155   138 1
  164   156   143 1
  165   157   147 1
  166   158   151 1
  167   160   159 1
  168   161   160 1
  169   162   161 1
  170   163   161 1
  171   164   163 1
  172   165   159 1
  173   165   164 1
  174   166   165 1
  175   167   166 1
  176   168   167 1
  177   169   168 1
  178   170   169 1
  179   171   170 1
  180   172   171 1
  181   173   172 1
  182   174   153 1
  183   174   173 1
  184   175   159 1
  185   176   159 1
  186   177   164 1
  187   178   168 1
  188   179   172 1
  189   180   179 1
  190   181   179 1
  191   182   179 1
  192   183   178 1
  193   184   178 1
  194   185   178 1
  195   186   177 1
  196   187   177 1
  197   188   177 1
  198   189   176 1
  199   190   176 1
  200   191   176 1
  201   192   175 1
  202   193   175 1
  203   194   175 1
  204   195   160 1
  205   196   160 1
  206   197   158 1
  207   198   158 1
  208   199   158 1
  209   200   157 1
  210   201   157 1
  211   202   157 1
  212   203   156 1
  213   204   156 1
  214   205   156 1
  215   206   155 1
  216   207   155 1
  217   208   155 1
  218   209   154 1
  219   210   154 1
  220   211   154 1
  221   212   141 1
  222   213   146 1
  223   214   145 1
  224   215   142 1
  225   216   142 1
  226   217   174 1
  227   218   173 1
  228   219   171 1
  229   220   170 1
  230   221   169 1
  231   222   140 1
  232   223   167 1
  233   224   166 1
  234   225   165 1
  235   226   163 1
  236   227   161 1
  237   228   139 1
  238   229   139 1
  239   230   153 1
  240   231   152 1
  241   232   150 1
  242   233   149 1
  243   234   148 1
  244   235   162 1
  245   65    153 1
  246   65    174 1
@<TRIPOS>SUBSTRUCTURE
      1 CLA               1 ****               0 ****  **** 
      2 LUT             138 ****               0 ****  **** 
