@<TRIPOS>MOLECULE
Cpptraj generated mol2 file.
  235   246     2     0     0
SMALL
USER_CHARGES


@<TRIPOS>ATOM
      1 CAA        79.4349   59.2737   33.8566 a2         1 CLA     -0.055900
      2 CAB        78.6838   61.8251   43.2050 c8         1 CLA     -0.148500
      3 CAC        71.6413   58.1569   41.4401 a2         1 CLA     -0.012600
      4 CAD        75.3514   56.1849   34.4279 ck         1 CLA      0.398800
      5 NA         78.1296   59.2028   37.1277 ns         1 CLA     -0.225500
      6 CBA        80.6908   59.4202   33.0970 a2         1 CLA     -0.135000
      7 CBB        79.3153   62.9615   43.5606 c0         1 CLA     -0.395200
      8 CBC        71.6853   56.5940   41.3899 a3         1 CLA     -0.037700
      9 CBD        76.7585   56.8960   34.2725 a1         1 CLA     -0.053900
     10 NB         77.7303   60.2764   39.9399 nm         1 CLA     -0.295700
     11 OBD        74.8139   55.4610   33.6222 o2         1 CLA     -0.494600
     12 CGA        81.2715   58.1220   32.5120 c4         1 CLA      0.827000
     13 CGD        77.8397   55.8840   34.0205 c4         1 CLA      0.655300
     14 ND         75.2877   58.1697   37.3591 nm         1 CLA     -0.291600
     15 CED        78.8814   53.9625   35.1345 a3         1 CLA      0.005400
     16 CHA        76.9750   57.7345   35.4687 cs         1 CLA     -0.123800
     17 CHB        79.7347   60.3720   38.4457 aa         1 CLA     -0.291900
     18 CHC        76.1587   60.2758   41.8464 aa         1 CLA     -0.090400
     19 CHD        73.2575   57.9836   38.7299 aa         1 CLA     -0.052000
     20 CMA        81.6079   58.5066   36.9112 a3         1 CLA     -0.230700
     21 CMB        80.9258   61.8966   40.8252 a3         1 CLA     -0.180800
     22 CMC        73.6020   59.5839   43.4715 a3         1 CLA     -0.134000
     23 CMD        72.3079   56.1211   36.2213 a3         1 CLA     -0.141100
     24 C1         82.4073   56.1087   33.2236 a2         1 CLA      0.023000
     25 C1A        78.1095   58.5115   35.8821 ac         1 CLA     -0.015100
     26 C1B        79.0660   60.6611   39.6730 cr         1 CLA      0.054700
     27 C1C        75.0410   59.6638   41.3150 cn         1 CLA     -0.005600
     28 C1D        74.0137   57.7149   37.5333 ap         1 CLA     -0.047300
     29 O1A        81.3024   57.8106   31.3168 o2         1 CLA     -0.610800
     30 O1D        78.6974   55.9360   33.1504 o2         1 CLA     -0.558200
     31 C2         83.3489   55.5949   34.2885 c8         1 CLA     -0.325100
     32 C2A        79.4873   58.5689   35.2256 a1         1 CLA      0.098600
     33 C2B        79.5232   61.3299   40.8228 cb         1 CLA      0.088500
     34 C2C        73.7620   59.3691   42.0196 cb         1 CLA      0.053700
     35 C2D        73.6543   56.8043   36.3712 cb         1 CLA      0.058900
     36 O2A        81.9057   57.4475   33.5720 o1         1 CLA     -0.437200
     37 O2D        77.8288   54.9450   35.0363 o1         1 CLA     -0.357600
     38 C3         84.4262   54.7588   34.1888 c5         1 CLA      0.031200
     39 C3A        80.3732   59.3039   36.3369 a1         1 CLA      0.166800
     40 C3B        78.5104   61.3499   41.8344 cb         1 CLA      0.035000
     41 C3C        72.9671   58.7540   41.1714 cb         1 CLA     -0.089900
     42 C3D        74.8135   56.7214   35.5757 cb         1 CLA     -0.035900
     43 C4         84.2481   53.2639   34.0619 a3         1 CLA     -0.053300
     44 C4A        79.3341   59.6575   37.3370 ac         1 CLA      0.001800
     45 C4B        77.3867   60.5894   41.2443 cn         1 CLA     -0.020900
     46 C4C        73.6795   58.6461   39.9092 cr         1 CLA     -0.044400
     47 C4D        75.7663   57.6532   36.1909 c6         1 CLA     -0.046000
     48 C5         85.8451   55.2712   34.0684 a2         1 CLA     -0.070400
     49 C6         86.2284   56.4607   34.9905 a2         1 CLA      0.043900
     50 C7         85.9587   56.1889   36.4025 a2         1 CLA     -0.150000
     51 C8         87.2316   56.1114   37.3475 a1         1 CLA      0.064200
     52 C9         87.9910   54.7566   37.0133 a3         1 CLA     -0.259300
     53 C10        86.8603   56.1157   38.8261 a2         1 CLA     -0.071900
     54 C11        86.4914   57.4322   39.5720 a2         1 CLA      0.014500
     55 C12        86.7716   57.3384   41.0945 a2         1 CLA     -0.112100
     56 C13        86.1039   58.4764   41.9263 a1         1 CLA      0.089200
     57 C14        86.8713   59.8009   41.6335 a3         1 CLA     -0.239100
     58 C15        86.1330   58.1183   43.4387 a2         1 CLA     -0.102200
     59 C16        85.2922   59.1021   44.3399 a2         1 CLA      0.023900
     60 C17        85.3033   58.6394   45.7973 a2         1 CLA     -0.105700
     61 C18        84.7400   59.7964   46.6599 a1         1 CLA      0.206800
     62 C19        83.1878   59.9389   46.4240 a3         1 CLA     -0.280100
     63 C20        85.0106   59.3059   48.1126 a3         1 CLA     -0.280100
     64 NC         74.8662   59.2048   39.9621 nx         1 CLA     -0.309200
     65 MG         76.4604   59.3877   38.5273 mg         1 CLA      0.895000
     66 HMD3       72.2575   55.5046   37.1399 dc         1 CLA      0.064300
     67 HMD2       71.4346   56.7963   36.2194 dc         1 CLA      0.064300
     68 HMD1       72.4052   55.4838   35.3898 dc         1 CLA      0.064300
     69 HMC3       74.3689   58.9661   43.9586 dc         1 CLA      0.052100
     70 HMC2       73.7664   60.6391   43.6029 dc         1 CLA      0.052100
     71 HMC1       72.5857   59.4342   43.8569 dc         1 CLA      0.052100
     72 HMB3       81.0422   62.9139   40.4831 dc         1 CLA      0.063600
     73 HMB2       81.3152   61.8683   41.8223 dc         1 CLA      0.063600
     74 HMB1       81.6323   61.2573   40.3023 dc         1 CLA      0.063600
     75 HMA3       82.4008   58.4359   36.1297 dc         1 CLA      0.058300
     76 HMA2       82.1326   58.9503   37.7374 dc         1 CLA      0.058300
     77 HMA1       81.3128   57.5211   37.1444 dc         1 CLA      0.058300
     78 HED3       79.7100   54.3875   35.5998 dc         1 CLA      0.079300
     79 HED2       78.3656   53.3536   35.8369 dc         1 CLA      0.079300
     80 HED1       79.1157   53.5488   34.1694 dc         1 CLA      0.079300
     81 HBC3       72.0272   56.2510   40.4450 dc         1 CLA      0.016300
     82 HBC2       72.3231   56.3213   42.2324 dc         1 CLA      0.016300
     83 HBC1       70.7009   56.2080   41.7071 dc         1 CLA      0.016300
     84 HBB2       79.6093   63.1311   44.5975 da         1 CLA      0.183000
     85 HBB1       79.7460   63.6442   42.7801 da         1 CLA      0.183000
     86 HBA2       80.3321   60.1119   32.2902 dc         1 CLA      0.029400
     87 HBA1       81.4778   59.8631   33.6903 dc         1 CLA      0.029400
     88 HAC2       71.1417   58.4811   42.3553 dc         1 CLA      0.029300
     89 HAC1       71.0045   58.4155   40.5665 dc         1 CLA      0.029300
     90 HAA2       78.7704   58.8184   33.1675 dc         1 CLA      0.028700
     91 HAA1       79.1201   60.3073   33.9336 dc         1 CLA      0.028700
     92 H203       86.0761   58.9202   48.2597 dc         1 CLA      0.065600
     93 H202       84.9258   60.2607   48.7165 dc         1 CLA      0.065600
     94 H201       84.3472   58.4744   48.4244 dc         1 CLA      0.065600
     95 H193       82.7122   58.9970   46.5459 dc         1 CLA      0.065600
     96 H192       82.9060   60.6707   47.1695 dc         1 CLA      0.065600
     97 H191       82.9457   60.3590   45.4755 dc         1 CLA      0.065600
     98 H172       84.6055   57.7847   45.9757 dc         1 CLA      0.027600
     99 H171       86.3096   58.5062   46.1487 dc         1 CLA      0.027600
    100 H162       85.6360   60.1636   44.3174 dc         1 CLA      0.002900
    101 H161       84.2205   58.9832   43.9925 dc         1 CLA      0.002900
    102 H152       85.7705   57.0639   43.5521 dc         1 CLA      0.029100
    103 H151       87.1494   58.1775   43.7489 dc         1 CLA      0.029100
    104 H143       86.3413   60.6557   42.1313 dc         1 CLA      0.063600
    105 H142       87.8554   59.8891   42.0563 dc         1 CLA      0.063600
    106 H141       86.9933   59.8763   40.5213 dc         1 CLA      0.063600
    107 H122       86.4793   56.3531   41.3813 dc         1 CLA      0.032500
    108 H121       87.8606   57.2763   41.3672 dc         1 CLA      0.032500
    109 H112       87.2084   58.1624   39.2397 dc         1 CLA      0.006600
    110 H111       85.5177   57.7596   39.2929 dc         1 CLA      0.006600
    111 H102       86.0168   55.4856   38.9659 dc         1 CLA      0.024100
    112 H101       87.6596   55.6208   39.4036 dc         1 CLA      0.024100
    113 HHD        72.2151   57.5592   38.6786 da         1 CLA      0.174300
    114 HHC        76.0007   60.7373   42.8484 da         1 CLA      0.136800
    115 HHB        80.7656   60.7599   38.3961 da         1 CLA      0.138300
    116 HBD        76.8828   57.4939   33.3783 dc         1 CLA      0.107700
    117 HAB        78.3350   61.2448   44.0226 da         1 CLA      0.155200
    118 H93        88.8445   54.5705   37.6879 dc         1 CLA      0.069500
    119 H92        87.3731   53.9318   37.2816 dc         1 CLA      0.069500
    120 H91        88.3825   54.7515   35.9918 dc         1 CLA      0.069500
    121 H8         87.8536   56.9668   37.0639 dc         1 CLA      0.029300
    122 H72        85.3119   56.9664   36.7906 dc         1 CLA      0.044400
    123 H71        85.4831   55.1683   36.6429 dc         1 CLA      0.044400
    124 H62        87.2938   56.5817   34.7306 dc         1 CLA      0.015600
    125 H61        85.5417   57.2501   34.6181 dc         1 CLA      0.015600
    126 H52        86.5539   54.4660   34.0607 dc         1 CLA      0.033200
    127 H51        85.9410   55.7136   33.0913 dc         1 CLA      0.033200
    128 H43        84.7771   52.6804   34.8051 dc         1 CLA      0.037000
    129 H42        83.1722   53.0158   33.9206 dc         1 CLA      0.037000
    130 H41        84.6722   53.0366   33.0735 dc         1 CLA      0.037000
    131 H3A        80.6517   60.2755   35.9803 dc         1 CLA      0.041100
    132 H2A        79.8401   57.5707   35.1863 dc         1 CLA      0.083100
    133 H2         82.9637   55.6589   35.3042 da         1 CLA      0.180900
    134 H18        85.1377   60.8451   46.4967 dc         1 CLA     -0.003900
    135 H13        85.1137   58.5035   41.6060 dc         1 CLA      0.019700
    136 H12        81.5067   55.3697   33.1737 dc         1 CLA      0.120400
    137 H11        82.8411   56.0326   32.2293 dc         1 CLA      0.120400
    138 C1         69.0356   61.4488   49.3517 Z1         2 LUT      0.509236
    139 C2         67.5493   61.3649   49.6524 Z2         2 LUT     -0.434695
    140 C3         66.7221   62.5464   50.0775 Z3         2 LUT      0.437453
    141 O3         66.6049   62.5772   51.4550 S1         2 LUT     -0.547129
    142 C4         67.4993   63.8545   49.6688 Z4         2 LUT     -0.468603
    143 C5         68.2782   63.5701   48.3722 Z5         2 LUT      0.279246
    144 C6         69.0813   62.5320   48.2887 Z6         2 LUT     -0.305473
    145 C7         69.5321   62.0888   46.9026 Z7         2 LUT      0.069402
    146 C8         70.3618   62.7298   46.0878 Z8         2 LUT     -0.191631
    147 C9         70.8182   62.4190   44.8014 Z9         2 LUT      0.196698
    148 C10        71.9299   63.1085   44.3066 Y1         2 LUT     -0.208611
    149 C11        72.5249   63.1114   42.9658 Y2         2 LUT      0.030784
    150 C12        73.7596   63.6905   42.6921 Y3         2 LUT     -0.220316
    151 C13        74.5422   63.6636   41.4850 Y4         2 LUT      0.215937
    152 C14        75.7399   64.3358   41.5493 Y5         2 LUT     -0.185793
    153 C15        76.8239   64.3651   40.5537 Y6         2 LUT     -0.057835
    154 C16        69.5323   59.9873   49.0759 Y7         2 LUT     -0.405615
    155 C17        69.8016   61.8717   50.6201 Y7         2 LUT     -0.405615
    156 C18        67.7664   64.2746   47.0962 Y9         2 LUT     -0.369639
    157 C19        70.1171   61.3207   43.9794 W1         2 LUT     -0.333362
    158 C20        73.9402   63.1320   40.2191 W2         2 LUT     -0.323439
    159 C21        88.0166   65.6279   34.6940 Z1         2 LUT      0.406104
    160 C22        88.7127   65.4121   33.3889 Z2         2 LUT     -0.404965
    161 C23        88.9725   66.6822   32.5933 Z3         2 LUT      0.391255
    162 O23        89.6289   66.3260   31.3305 S1         2 LUT     -0.528210
    163 C24        87.7152   67.5202   32.4149 W6         2 LUT     -0.258361
    164 C25        86.6321   67.4065   33.2461 Z5         2 LUT      0.133546
    165 C26        86.5848   66.3603   34.3775 W8         2 LUT     -0.147008
    166 C27        86.0305   67.0146   35.6322 Z7         2 LUT      0.023843
    167 C28        84.9138   66.6384   36.2169 Z8         2 LUT     -0.216987
    168 C29        84.2694   67.1312   37.4105 Z9         2 LUT      0.206524
    169 C30        83.1701   66.4178   37.7862 Y1         2 LUT     -0.215556
    170 C31        82.2980   66.5482   38.9194 Y2         2 LUT      0.025142
    171 C32        81.1744   65.8281   38.9981 Y3         2 LUT     -0.212209
    172 C33        80.2163   65.8968   40.1203 Y4         2 LUT      0.240937
    173 C34        79.1641   65.0204   40.0504 Y5         2 LUT     -0.218862
    174 C35        77.9805   65.0647   40.8050 Y6         2 LUT     -0.023547
    175 C36        89.1207   66.4175   35.4645 Y7         2 LUT     -0.393485
    176 C37        87.9482   64.2807   35.5326 Y7         2 LUT     -0.393485
    177 C38        85.4185   68.2479   33.0146 Y9         2 LUT     -0.387526
    178 C39        84.7016   68.3344   38.1249 W1         2 LUT     -0.322618
    179 C40        80.6346   66.7888   41.3145 W2         2 LUT     -0.358472
    180 H403       80.2584   66.4052   42.2396 R7         2 LUT      0.097720
    181 H402       81.6656   66.8009   41.4406 R7         2 LUT      0.097720
    182 H401       80.2597   67.7829   41.1329 R7         2 LUT      0.097720
    183 H393       83.9301   68.6941   38.7977 R4         2 LUT      0.082505
    184 H392       85.5603   68.2484   38.7287 R4         2 LUT      0.082505
    185 H391       84.9309   69.1458   37.4485 R4         2 LUT      0.082505
    186 H383       85.5927   68.9717   32.1820 R1         2 LUT      0.104030
    187 H382       84.6205   67.6038   32.7552 R1         2 LUT      0.104030
    188 H381       85.1609   68.7206   33.9935 R1         2 LUT      0.104030
    189 H373       87.2731   63.4789   35.0743 T4         2 LUT      0.089537
    190 H372       88.9355   63.8121   35.5811 T4         2 LUT      0.089537
    191 H371       87.5010   64.3256   36.5231 T4         2 LUT      0.089537
    192 H363       88.7477   66.6144   36.5164 T4         2 LUT      0.089537
    193 H362       90.1632   65.8694   35.4704 T4         2 LUT      0.089537
    194 H361       89.2690   67.5075   35.2610 T4         2 LUT      0.089537
    195 H222       89.6407   64.9370   33.4364 U2         2 LUT      0.127376
    196 H221       88.0544   64.8905   32.7173 U2         2 LUT      0.127376
    197 H203       74.3267   63.5159   39.2871 R7         2 LUT      0.087068
    198 H202       74.2101   62.0417   40.1258 R7         2 LUT      0.087068
    199 H201       72.8492   63.1720   40.1813 R7         2 LUT      0.087068
    200 H193       70.3131   61.4398   42.9314 R4         2 LUT      0.089716
    201 H192       70.2981   60.3131   44.2378 R4         2 LUT      0.089716
    202 H191       68.9921   61.4181   44.1087 R4         2 LUT      0.089716
    203 H183       68.2684   65.1858   46.7519 R1         2 LUT      0.094572
    204 H182       67.7102   63.5933   46.2623 R1         2 LUT      0.094572
    205 H181       66.6955   64.5268   47.2182 R1         2 LUT      0.094572
    206 H173       70.1669   61.0822   51.2131 T4         2 LUT      0.093752
    207 H172       70.6731   62.4095   50.3954 T4         2 LUT      0.093752
    208 H171       69.2307   62.4982   51.2922 T4         2 LUT      0.093752
    209 H163       69.2075   59.7009   48.1261 T4         2 LUT      0.093752
    210 H162       70.6161   59.9855   48.9038 T4         2 LUT      0.093752
    211 H161       69.3159   59.3563   49.9628 T4         2 LUT      0.093752
    212 HO3        66.0921   61.9006   51.9253 Q1         2 LUT      0.300121
    213 H8         70.8817   63.6215   46.5116 U7         2 LUT      0.080784
    214 H7         69.0927   61.1861   46.4528 U6         2 LUT      0.042190
    215 H42        66.7934   64.6338   49.7265 U5         2 LUT      0.145166
    216 H41        68.2499   64.2482   50.4150 U5         2 LUT      0.145166
    217 H35        77.8613   65.7746   41.6303 T3         2 LUT      0.077919
    218 H34        79.0333   64.2247   39.2725 T2         2 LUT      0.073626
    219 H32        81.0103   65.0948   38.2481 T1         2 LUT      0.092510
    220 H31        82.5894   67.3206   39.6240 U9         2 LUT      0.070048
    221 H30        82.8900   65.5597   37.1744 U8         2 LUT      0.085442
    222 H3         65.7738   62.6506   49.5778 U3         2 LUT     -0.031596
    223 H28        84.3557   65.9215   35.6986 U7         2 LUT      0.084728
    224 H27        86.6541   67.7878   36.1159 U6         2 LUT      0.087291
    225 H26        85.9808   65.5734   33.9299 Q6         2 LUT      0.075325
    226 H24        87.6524   68.1919   31.5724 Q5         2 LUT      0.094482
    227 H23        89.7028   67.2141   33.2828 U3         2 LUT     -0.024869
    228 H22        67.1756   61.1202   48.6478 U2         2 LUT      0.127376
    229 H21        67.2372   60.4611   50.2438 U2         2 LUT      0.127376
    230 H15        76.8667   63.6560   39.7317 T3         2 LUT      0.093200
    231 H14        76.0419   64.7066   42.5588 T2         2 LUT      0.068865
    232 H12        74.1903   64.1223   43.6243 T1         2 LUT      0.095507
    233 H11        72.0292   62.5084   42.1976 U9         2 LUT      0.068930
    234 H10        72.4761   63.8548   44.9328 U8         2 LUT      0.083911
    235 H1         89.0391   65.8758   30.7444 Q1         2 LUT      0.297311
@<TRIPOS>BOND
    1     6     1 1
    2     7     2 1
    3     8     3 1
    4     9     4 1
    5    11     4 1
    6    12     6 1
    7    13     9 1
    8    16     9 1
    9    25     5 1
   10    25    16 1
   11    26    10 1
   12    26    17 1
   13    27    18 1
   14    28    14 1
   15    28    19 1
   16    29    12 1
   17    30    13 1
   18    31    24 1
   19    32     1 1
   20    32    25 1
   21    33    21 1
   22    33    26 1
   23    34    22 1
   24    34    27 1
   25    35    23 1
   26    35    28 1
   27    36    12 1
   28    36    24 1
   29    37    13 1
   30    37    15 1
   31    38    31 1
   32    39    20 1
   33    39    32 1
   34    40     2 1
   35    40    33 1
   36    41     3 1
   37    41    34 1
   38    42     4 1
   39    42    35 1
   40    43    38 1
   41    44     5 1
   42    44    17 1
   43    44    39 1
   44    45    10 1
   45    45    18 1
   46    45    40 1
   47    46    19 1
   48    46    41 1
   49    47    14 1
   50    47    16 1
   51    47    42 1
   52    48    38 1
   53    49    48 1
   54    50    49 1
   55    51    50 1
   56    52    51 1
   57    53    51 1
   58    54    53 1
   59    55    54 1
   60    56    55 1
   61    57    56 1
   62    58    56 1
   63    59    58 1
   64    60    59 1
   65    61    60 1
   66    62    61 1
   67    63    61 1
   68    64    27 1
   69    64    46 1
   70    65     5 1
   71    65    10 1
   72    65    64 1
   73    65    14 1
   74    66    23 1
   75    67    23 1
   76    68    23 1
   77    69    22 1
   78    70    22 1
   79    71    22 1
   80    72    21 1
   81    73    21 1
   82    74    21 1
   83    75    20 1
   84    76    20 1
   85    77    20 1
   86    78    15 1
   87    79    15 1
   88    80    15 1
   89    81     8 1
   90    82     8 1
   91    83     8 1
   92    84     7 1
   93    85     7 1
   94    86     6 1
   95    87     6 1
   96    88     3 1
   97    89     3 1
   98    90     1 1
   99    91     1 1
  100    92    63 1
  101    93    63 1
  102    94    63 1
  103    95    62 1
  104    96    62 1
  105    97    62 1
  106    98    60 1
  107    99    60 1
  108   100    59 1
  109   101    59 1
  110   102    58 1
  111   103    58 1
  112   104    57 1
  113   105    57 1
  114   106    57 1
  115   107    55 1
  116   108    55 1
  117   109    54 1
  118   110    54 1
  119   111    53 1
  120   112    53 1
  121   113    19 1
  122   114    18 1
  123   115    17 1
  124   116     9 1
  125   117     2 1
  126   118    52 1
  127   119    52 1
  128   120    52 1
  129   121    51 1
  130   122    50 1
  131   123    50 1
  132   124    49 1
  133   125    49 1
  134   126    48 1
  135   127    48 1
  136   128    43 1
  137   129    43 1
  138   130    43 1
  139   131    39 1
  140   132    32 1
  141   133    31 1
  142   134    61 1
  143   135    56 1
  144   136    24 1
  145   137    24 1
  146   139   138 1
  147   140   139 1
  148   141   140 1
  149   142   140 1
  150   143   142 1
  151   144   138 1
  152   144   143 1
  153   145   144 1
  154   146   145 1
  155   147   146 1
  156   148   147 1
  157   149   148 1
  158   150   149 1
  159   151   150 1
  160   152   151 1
  161   153   152 1
  162   154   138 1
  163   155   138 1
  164   156   143 1
  165   157   147 1
  166   158   151 1
  167   160   159 1
  168   161   160 1
  169   162   161 1
  170   163   161 1
  171   164   163 1
  172   165   159 1
  173   165   164 1
  174   166   165 1
  175   167   166 1
  176   168   167 1
  177   169   168 1
  178   170   169 1
  179   171   170 1
  180   172   171 1
  181   173   172 1
  182   174   153 1
  183   174   173 1
  184   175   159 1
  185   176   159 1
  186   177   164 1
  187   178   168 1
  188   179   172 1
  189   180   179 1
  190   181   179 1
  191   182   179 1
  192   183   178 1
  193   184   178 1
  194   185   178 1
  195   186   177 1
  196   187   177 1
  197   188   177 1
  198   189   176 1
  199   190   176 1
  200   191   176 1
  201   192   175 1
  202   193   175 1
  203   194   175 1
  204   195   160 1
  205   196   160 1
  206   197   158 1
  207   198   158 1
  208   199   158 1
  209   200   157 1
  210   201   157 1
  211   202   157 1
  212   203   156 1
  213   204   156 1
  214   205   156 1
  215   206   155 1
  216   207   155 1
  217   208   155 1
  218   209   154 1
  219   210   154 1
  220   211   154 1
  221   212   141 1
  222   213   146 1
  223   214   145 1
  224   215   142 1
  225   216   142 1
  226   217   174 1
  227   218   173 1
  228   219   171 1
  229   220   170 1
  230   221   169 1
  231   222   140 1
  232   223   167 1
  233   224   166 1
  234   225   165 1
  235   226   163 1
  236   227   161 1
  237   228   139 1
  238   229   139 1
  239   230   153 1
  240   231   152 1
  241   232   150 1
  242   233   149 1
  243   234   148 1
  244   235   162 1
  245   65    153 1
  246   65    174 1
@<TRIPOS>SUBSTRUCTURE
      1 CLA               1 ****               0 ****  **** 
      2 LUT             138 ****               0 ****  **** 
