@<TRIPOS>MOLECULE
Cpptraj generated mol2 file.
  235   246     2     0     0
SMALL
USER_CHARGES


@<TRIPOS>ATOM
      1 CAA        76.6587   57.7589   32.9837 a2         1 CLA     -0.055900
      2 CAB        77.1893   61.4265   42.0693 c8         1 CLA     -0.148500
      3 CAC        70.0992   57.3137   41.6957 a2         1 CLA     -0.012600
      4 CAD        72.7392   54.9733   34.3685 ck         1 CLA      0.398800
      5 NA         75.9118   58.0192   36.4468 ns         1 CLA     -0.225500
      6 CBA        77.8267   57.6730   31.9661 a2         1 CLA     -0.135000
      7 CBB        78.4102   61.8163   42.6352 c0         1 CLA     -0.395200
      8 CBC        69.9799   55.7727   41.9682 a3         1 CLA     -0.037700
      9 CBD        74.1619   55.4938   34.0214 a1         1 CLA     -0.053900
     10 NB         75.8904   59.5812   39.0332 nm         1 CLA     -0.295700
     11 OBD        72.0586   54.2123   33.6928 o2         1 CLA     -0.494600
     12 CGA        78.5257   56.3909   31.6552 c4         1 CLA      0.827000
     13 CGD        75.0852   54.2687   33.8459 c4         1 CLA      0.655300
     14 ND         73.1831   56.9846   37.2436 nm         1 CLA     -0.291600
     15 CED        75.5993   52.1031   34.8315 a3         1 CLA      0.005400
     16 CHA        74.5629   56.5037   35.1347 cs         1 CLA     -0.123800
     17 CHB        77.6683   59.4433   37.3816 aa         1 CLA     -0.291900
     18 CHC        74.6723   59.7575   41.1223 aa         1 CLA     -0.090400
     19 CHD        71.3982   56.8845   38.8468 aa         1 CLA     -0.052000
     20 CMA        79.3910   57.4174   35.7178 a3         1 CLA     -0.230700
     21 CMB        79.1532   61.3733   39.3971 a3         1 CLA     -0.180800
     22 CMC        72.3282   59.2049   43.2631 a3         1 CLA     -0.134000
     23 CMD        70.0212   55.1007   36.6418 a3         1 CLA     -0.141100
     24 C1         79.6984   54.4727   32.5214 a2         1 CLA      0.023000
     25 C1A        75.7187   57.2283   35.3393 ac         1 CLA     -0.015100
     26 C1B        77.1380   59.9122   38.5781 cr         1 CLA      0.054700
     27 C1C        73.5030   58.9957   40.8821 cn         1 CLA     -0.005600
     28 C1D        71.8736   56.5860   37.6009 ap         1 CLA     -0.047300
     29 O1A        78.5455   55.9187   30.5042 o2         1 CLA     -0.610800
     30 O1D        75.8637   54.0936   32.9299 o2         1 CLA     -0.558200
     31 C2         80.4169   54.1565   33.8431 c8         1 CLA     -0.325100
     32 C2A        76.9812   57.1846   34.4280 a1         1 CLA      0.098600
     33 C2B        77.8377   60.6990   39.6076 cb         1 CLA      0.088500
     34 C2C        72.3779   58.6940   41.8606 cb         1 CLA      0.053700
     35 C2D        71.3773   55.6713   36.6290 cb         1 CLA      0.058900
     36 O2A        79.1812   55.8095   32.7273 o1         1 CLA     -0.437200
     37 O2D        74.9950   53.4462   34.9374 o1         1 CLA     -0.357600
     38 C3         81.3691   53.2419   34.0152 c5         1 CLA      0.031200
     39 C3A        78.0233   58.0727   35.2724 a1         1 CLA      0.166800
     40 C3B        77.0099   60.7405   40.7524 cb         1 CLA      0.035000
     41 C3C        71.4473   57.8333   41.1527 cb         1 CLA     -0.089900
     42 C3D        72.3746   55.5767   35.6203 cb         1 CLA     -0.035900
     43 C4         81.2096   51.8574   34.4638 a3         1 CLA     -0.053300
     44 C4A        77.1827   58.5743   36.4152 ac         1 CLA      0.001800
     45 C4B        75.7521   60.0893   40.3054 cn         1 CLA     -0.020900
     46 C4C        72.0781   57.6645   39.8527 cr         1 CLA     -0.044400
     47 C4D        73.4601   56.4329   36.0448 c6         1 CLA     -0.046000
     48 C5         82.8317   53.5846   33.8813 a2         1 CLA     -0.070400
     49 C6         83.3534   55.0345   34.1824 a2         1 CLA      0.043900
     50 C7         83.3207   55.3374   35.6764 a2         1 CLA     -0.150000
     51 C8         83.5962   56.7947   36.1190 a1         1 CLA      0.064200
     52 C9         85.0365   57.1883   35.5441 a3         1 CLA     -0.259300
     53 C10        83.6722   56.9052   37.6842 a2         1 CLA     -0.071900
     54 C11        82.3971   56.6819   38.4750 a2         1 CLA      0.014500
     55 C12        82.5469   57.2157   39.9525 a2         1 CLA     -0.112100
     56 C13        81.3912   56.8044   40.9145 a1         1 CLA      0.089200
     57 C14        80.0245   57.6307   40.5942 a3         1 CLA     -0.239100
     58 C15        81.8526   57.0670   42.3298 a2         1 CLA     -0.102200
     59 C16        82.3620   58.5257   42.6049 a2         1 CLA      0.023900
     60 C17        82.7766   58.7199   44.0412 a2         1 CLA     -0.105700
     61 C18        82.9425   60.2002   44.6032 a1         1 CLA      0.206800
     62 C19        83.9442   60.9498   43.6598 a3         1 CLA     -0.280100
     63 C20        81.6260   61.0303   44.6934 a3         1 CLA     -0.280100
     64 NC         73.2684   58.3439   39.7013 nx         1 CLA     -0.309200
     65 MG         74.5658   58.3268   38.0947 mg         1 CLA      0.895000
     66 HMD3       69.9157   54.3322   35.8887 dc         1 CLA      0.064300
     67 HMD2       69.8897   54.6279   37.6668 dc         1 CLA      0.064300
     68 HMD1       69.2502   55.8752   36.5079 dc         1 CLA      0.064300
     69 HMC3       71.3300   59.3384   43.6536 dc         1 CLA      0.052100
     70 HMC2       72.9430   58.6860   43.9404 dc         1 CLA      0.052100
     71 HMC1       72.7811   60.2318   43.2306 dc         1 CLA      0.052100
     72 HMB3       79.9052   60.6468   39.6821 dc         1 CLA      0.063600
     73 HMB2       79.3100   61.5890   38.3569 dc         1 CLA      0.063600
     74 HMB1       79.0900   62.3187   39.9008 dc         1 CLA      0.063600
     75 HMA3       79.9920   57.1303   34.8560 dc         1 CLA      0.058300
     76 HMA2       80.0267   58.1179   36.2827 dc         1 CLA      0.058300
     77 HMA1       79.2674   56.5043   36.3954 dc         1 CLA      0.058300
     78 HED3       75.2862   51.5180   35.6644 dc         1 CLA      0.079300
     79 HED2       75.3419   51.5760   33.8103 dc         1 CLA      0.079300
     80 HED1       76.6814   52.1499   34.9722 dc         1 CLA      0.079300
     81 HBC3       69.2138   55.6239   42.7612 dc         1 CLA      0.016300
     82 HBC2       69.6606   55.3220   40.9822 dc         1 CLA      0.016300
     83 HBC1       70.8960   55.3322   42.3251 dc         1 CLA      0.016300
     84 HBB2       78.4272   62.3666   43.5794 da         1 CLA      0.183000
     85 HBB1       79.4387   61.5416   42.2361 da         1 CLA      0.183000
     86 HBA2       77.5013   58.1494   31.0284 dc         1 CLA      0.029400
     87 HBA1       78.5560   58.3102   32.3592 dc         1 CLA      0.029400
     88 HAC2       69.8440   57.8479   42.6356 dc         1 CLA      0.029300
     89 HAC1       69.2324   57.5082   41.0031 dc         1 CLA      0.029300
     90 HAA2       75.8936   57.1890   32.4971 dc         1 CLA      0.028700
     91 HAA1       76.4027   58.8060   33.1162 dc         1 CLA      0.028700
     92 H203       81.8410   62.1077   44.8868 dc         1 CLA      0.065600
     93 H202       81.0470   60.8709   43.7331 dc         1 CLA      0.065600
     94 H201       81.0224   60.5656   45.4502 dc         1 CLA      0.065600
     95 H193       84.4006   61.7182   44.1929 dc         1 CLA      0.065600
     96 H192       84.7637   60.1215   43.5916 dc         1 CLA      0.065600
     97 H191       83.6167   61.2385   42.5832 dc         1 CLA      0.065600
     98 H172       82.0361   58.2843   44.7877 dc         1 CLA      0.027600
     99 H171       83.7123   58.1206   44.1354 dc         1 CLA      0.027600
    100 H162       83.1163   58.7221   41.8523 dc         1 CLA      0.002900
    101 H161       81.5066   59.1944   42.5340 dc         1 CLA      0.002900
    102 H152       80.9967   56.7811   42.9772 dc         1 CLA      0.029100
    103 H151       82.6209   56.3304   42.5605 dc         1 CLA      0.029100
    104 H143       79.9559   58.5088   41.2664 dc         1 CLA      0.063600
    105 H142       80.1027   57.8915   39.5193 dc         1 CLA      0.063600
    106 H141       79.2658   56.9473   40.7366 dc         1 CLA      0.063600
    107 H122       83.5027   56.8323   40.4040 dc         1 CLA      0.032500
    108 H121       82.5491   58.2211   39.7612 dc         1 CLA      0.032500
    109 H112       81.4558   57.0867   38.0211 dc         1 CLA      0.006600
    110 H111       82.2232   55.5764   38.5221 dc         1 CLA      0.006600
    111 H102       84.5274   56.2419   37.9167 dc         1 CLA      0.024100
    112 H101       84.0057   57.8599   37.9642 dc         1 CLA      0.024100
    113 HHD        70.2965   56.4932   39.0658 da         1 CLA      0.174300
    114 HHC        74.7221   60.1813   42.1103 da         1 CLA      0.136800
    115 HHB        78.6530   59.8022   37.2057 da         1 CLA      0.138300
    116 HBD        73.9408   56.0294   33.1239 dc         1 CLA      0.107700
    117 HAB        76.2475   61.7339   42.4835 da         1 CLA      0.155200
    118 H93        85.4810   58.2261   35.8018 dc         1 CLA      0.069500
    119 H92        85.8598   56.4669   35.8100 dc         1 CLA      0.069500
    120 H91        84.9721   57.2288   34.5058 dc         1 CLA      0.069500
    121 H8         82.7358   57.4374   35.8174 dc         1 CLA      0.029300
    122 H72        82.3537   55.0379   36.2060 dc         1 CLA      0.044400
    123 H71        84.1398   54.7259   36.1253 dc         1 CLA      0.044400
    124 H62        84.3029   55.0957   33.7044 dc         1 CLA      0.015600
    125 H61        82.7751   55.8833   33.7635 dc         1 CLA      0.015600
    126 H52        83.4989   52.8209   34.3173 dc         1 CLA      0.033200
    127 H51        82.9970   53.4461   32.8252 dc         1 CLA      0.033200
    128 H43        80.2374   51.6498   34.1072 dc         1 CLA      0.037000
    129 H42        81.8884   51.2211   33.9725 dc         1 CLA      0.037000
    130 H41        81.4099   51.8133   35.4770 dc         1 CLA      0.037000
    131 H3A        78.2066   59.0286   34.7541 dc         1 CLA      0.041100
    132 H2A        77.3736   56.1863   34.5754 dc         1 CLA      0.083100
    133 H2         80.1538   54.6779   34.7614 da         1 CLA      0.180900
    134 H18        83.4204   60.0804   45.5615 dc         1 CLA     -0.003900
    135 H13        81.1673   55.7744   40.8858 dc         1 CLA      0.019700
    136 H12        78.7904   53.8707   32.3723 dc         1 CLA      0.120400
    137 H11        80.4022   54.3189   31.6901 dc         1 CLA      0.120400
    138 C1         67.2015   61.4172   49.6735 Z1         2 LUT      0.509236
    139 C2         67.2544   62.6781   50.4973 Z2         2 LUT     -0.434695
    140 C3         65.8548   63.4373   50.6439 Z3         2 LUT      0.437453
    141 O3         66.0148   64.7964   51.1564 S1         2 LUT     -0.547129
    142 C4         65.2538   63.6104   49.2403 Z4         2 LUT     -0.468603
    143 C5         65.7981   62.8488   48.0881 Z5         2 LUT      0.279246
    144 C6         66.7043   61.9284   48.2453 Z6         2 LUT     -0.305473
    145 C7         67.4985   61.3848   47.0835 Z7         2 LUT      0.069402
    146 C8         68.2870   62.1677   46.2152 Z8         2 LUT     -0.191631
    147 C9         68.8751   61.6843   44.9943 Z9         2 LUT      0.196698
    148 C10        69.8080   62.5048   44.3462 Y1         2 LUT     -0.208611
    149 C11        70.4216   62.2941   43.0698 Y2         2 LUT      0.030784
    150 C12        71.7271   62.7677   42.7257 Y3         2 LUT     -0.220316
    151 C13        72.5789   62.5661   41.5635 Y4         2 LUT      0.215937
    152 C14        73.7035   63.3051   41.5526 Y5         2 LUT     -0.185793
    153 C15        74.7339   63.3530   40.5846 Y6         2 LUT     -0.057835
    154 C16        66.2780   60.4093   50.4106 Y7         2 LUT     -0.405615
    155 C17        68.5951   60.6841   49.7125 Y7         2 LUT     -0.405615
    156 C18        65.3962   63.5316   46.7870 Y9         2 LUT     -0.369639
    157 C19        68.4616   60.3297   44.4723 W1         2 LUT     -0.333362
    158 C20        71.9525   62.0541   40.2327 W2         2 LUT     -0.323439
    159 C21        85.9630   64.8116   34.0393 Z1         2 LUT      0.406104
    160 C22        86.7248   64.2825   32.8765 Z2         2 LUT     -0.404965
    161 C23        87.1078   65.3264   31.7798 Z3         2 LUT      0.391255
    162 O23        87.8212   64.5559   30.7739 S1         2 LUT     -0.528210
    163 C24        85.8308   66.1091   31.4025 W6         2 LUT     -0.258361
    164 C25        84.7753   66.2228   32.2306 Z5         2 LUT      0.133546
    165 C26        84.6083   65.3040   33.4765 W8         2 LUT     -0.147008
    166 C27        83.7705   65.9922   34.5625 Z7         2 LUT      0.023843
    167 C28        82.7327   65.4229   35.2645 Z8         2 LUT     -0.216987
    168 C29        82.0067   66.0810   36.4747 Z9         2 LUT      0.206524
    169 C30        80.9422   65.3341   36.9906 Y1         2 LUT     -0.215556
    170 C31        80.0715   65.5517   38.1156 Y2         2 LUT      0.025142
    171 C32        78.8702   64.9059   38.4012 Y3         2 LUT     -0.212209
    172 C33        77.9541   65.0926   39.6205 Y4         2 LUT      0.240937
    173 C34        76.8306   64.2135   39.7525 Y5         2 LUT     -0.218862
    174 C35        75.8471   64.1356   40.7323 Y6         2 LUT     -0.023547
    175 C36        86.8607   65.8765   34.6398 Y7         2 LUT     -0.393485
    176 C37        85.7541   63.6307   35.0138 Y7         2 LUT     -0.393485
    177 C38        83.5229   67.0109   31.9045 Y9         2 LUT     -0.387526
    178 C39        82.6274   67.2685   37.0366 W1         2 LUT     -0.322618
    179 C40        78.2582   66.1668   40.7005 W2         2 LUT     -0.358472
    180 H403       78.2054   67.1040   40.2467 R7         2 LUT      0.097720
    181 H402       77.5282   66.2543   41.5262 R7         2 LUT      0.097720
    182 H401       79.2205   66.0778   41.0907 R7         2 LUT      0.097720
    183 H393       82.9338   67.9904   36.3002 R4         2 LUT      0.082505
    184 H392       82.1052   67.8130   37.8385 R4         2 LUT      0.082505
    185 H391       83.5456   66.8829   37.4177 R4         2 LUT      0.082505
    186 H383       83.5738   67.4463   30.9661 R1         2 LUT      0.104030
    187 H382       82.7303   66.2134   31.8470 R1         2 LUT      0.104030
    188 H381       83.3190   67.8103   32.6311 R1         2 LUT      0.104030
    189 H373       85.3115   62.7918   34.5253 T4         2 LUT      0.089537
    190 H372       86.6589   63.2476   35.4375 T4         2 LUT      0.089537
    191 H371       85.0831   63.8158   35.8384 T4         2 LUT      0.089537
    192 H363       87.7226   65.4929   35.0261 T4         2 LUT      0.089537
    193 H362       87.0773   66.7805   34.0548 T4         2 LUT      0.089537
    194 H361       86.4585   66.1926   35.6089 T4         2 LUT      0.089537
    195 H222       87.7113   63.8343   33.1841 U2         2 LUT      0.127376
    196 H221       86.1234   63.4714   32.3883 U2         2 LUT      0.127376
    197 H203       71.2099   62.7052   39.7949 R7         2 LUT      0.087068
    198 H202       72.6400   61.8904   39.4317 R7         2 LUT      0.087068
    199 H201       71.4070   61.1201   40.3552 R7         2 LUT      0.087068
    200 H193       67.4141   60.0745   44.7444 R4         2 LUT      0.089716
    201 H192       68.4942   60.2108   43.3493 R4         2 LUT      0.089716
    202 H191       69.1713   59.5531   44.9354 R4         2 LUT      0.089716
    203 H183       64.3030   63.6301   46.6040 R1         2 LUT      0.094572
    204 H182       65.7844   64.5793   46.7513 R1         2 LUT      0.094572
    205 H181       65.8076   62.9727   45.8809 R1         2 LUT      0.094572
    206 H173       69.3636   61.3027   49.3369 T4         2 LUT      0.093752
    207 H172       69.0055   60.6880   50.7461 T4         2 LUT      0.093752
    208 H171       68.4646   59.7041   49.3096 T4         2 LUT      0.093752
    209 H163       66.5537   60.2363   51.4863 T4         2 LUT      0.093752
    210 H162       65.2450   60.9325   50.2740 T4         2 LUT      0.093752
    211 H161       66.1665   59.4067   49.8721 T4         2 LUT      0.093752
    212 HO3        65.1620   65.1181   51.5646 Q1         2 LUT      0.300121
    213 H8         68.3150   63.2384   46.4131 U7         2 LUT      0.080784
    214 H7         67.3609   60.3183   46.9003 U6         2 LUT      0.042190
    215 H42        64.2389   63.2980   49.3443 U5         2 LUT      0.145166
    216 H41        65.2944   64.6659   48.9143 U5         2 LUT      0.145166
    217 H35        75.9236   64.5809   41.7569 T3         2 LUT      0.077919
    218 H34        76.8333   63.2948   39.0023 T2         2 LUT      0.073626
    219 H32        78.5058   64.1087   37.7422 T1         2 LUT      0.092510
    220 H31        80.4465   66.3318   38.7875 U9         2 LUT      0.070048
    221 H30        80.5790   64.4740   36.4278 U8         2 LUT      0.085442
    222 H3         65.1291   62.7410   51.2085 U3         2 LUT     -0.031596
    223 H28        82.3695   64.4460   34.9524 U7         2 LUT      0.084728
    224 H27        84.2633   66.9619   34.7526 U6         2 LUT      0.087291
    225 H26        83.9872   64.5250   33.0362 Q6         2 LUT      0.075325
    226 H24        85.9490   66.8276   30.6397 Q5         2 LUT      0.094482
    227 H23        87.9348   65.9590   32.1631 U3         2 LUT     -0.024869
    228 H22        67.7280   62.5603   51.5033 U2         2 LUT      0.127376
    229 H21        67.9324   63.3391   50.0401 U2         2 LUT      0.127376
    230 H15        74.6485   62.8777   39.6138 T3         2 LUT      0.093200
    231 H14        73.8629   64.0067   42.3328 T2         2 LUT      0.068865
    232 H12        72.1178   63.3848   43.5534 T1         2 LUT      0.095507
    233 H11        70.0271   61.6081   42.2878 U9         2 LUT      0.068930
    234 H10        70.1817   63.4270   44.7984 U8         2 LUT      0.083911
    235 H1         87.3328   64.4477   29.9446 Q1         2 LUT      0.297311
@<TRIPOS>BOND
    1     6     1 1
    2     7     2 1
    3     8     3 1
    4     9     4 1
    5    11     4 1
    6    12     6 1
    7    13     9 1
    8    16     9 1
    9    25     5 1
   10    25    16 1
   11    26    10 1
   12    26    17 1
   13    27    18 1
   14    28    14 1
   15    28    19 1
   16    29    12 1
   17    30    13 1
   18    31    24 1
   19    32     1 1
   20    32    25 1
   21    33    21 1
   22    33    26 1
   23    34    22 1
   24    34    27 1
   25    35    23 1
   26    35    28 1
   27    36    12 1
   28    36    24 1
   29    37    13 1
   30    37    15 1
   31    38    31 1
   32    39    20 1
   33    39    32 1
   34    40     2 1
   35    40    33 1
   36    41     3 1
   37    41    34 1
   38    42     4 1
   39    42    35 1
   40    43    38 1
   41    44     5 1
   42    44    17 1
   43    44    39 1
   44    45    10 1
   45    45    18 1
   46    45    40 1
   47    46    19 1
   48    46    41 1
   49    47    14 1
   50    47    16 1
   51    47    42 1
   52    48    38 1
   53    49    48 1
   54    50    49 1
   55    51    50 1
   56    52    51 1
   57    53    51 1
   58    54    53 1
   59    55    54 1
   60    56    55 1
   61    57    56 1
   62    58    56 1
   63    59    58 1
   64    60    59 1
   65    61    60 1
   66    62    61 1
   67    63    61 1
   68    64    27 1
   69    64    46 1
   70    65     5 1
   71    65    10 1
   72    65    64 1
   73    65    14 1
   74    66    23 1
   75    67    23 1
   76    68    23 1
   77    69    22 1
   78    70    22 1
   79    71    22 1
   80    72    21 1
   81    73    21 1
   82    74    21 1
   83    75    20 1
   84    76    20 1
   85    77    20 1
   86    78    15 1
   87    79    15 1
   88    80    15 1
   89    81     8 1
   90    82     8 1
   91    83     8 1
   92    84     7 1
   93    85     7 1
   94    86     6 1
   95    87     6 1
   96    88     3 1
   97    89     3 1
   98    90     1 1
   99    91     1 1
  100    92    63 1
  101    93    63 1
  102    94    63 1
  103    95    62 1
  104    96    62 1
  105    97    62 1
  106    98    60 1
  107    99    60 1
  108   100    59 1
  109   101    59 1
  110   102    58 1
  111   103    58 1
  112   104    57 1
  113   105    57 1
  114   106    57 1
  115   107    55 1
  116   108    55 1
  117   109    54 1
  118   110    54 1
  119   111    53 1
  120   112    53 1
  121   113    19 1
  122   114    18 1
  123   115    17 1
  124   116     9 1
  125   117     2 1
  126   118    52 1
  127   119    52 1
  128   120    52 1
  129   121    51 1
  130   122    50 1
  131   123    50 1
  132   124    49 1
  133   125    49 1
  134   126    48 1
  135   127    48 1
  136   128    43 1
  137   129    43 1
  138   130    43 1
  139   131    39 1
  140   132    32 1
  141   133    31 1
  142   134    61 1
  143   135    56 1
  144   136    24 1
  145   137    24 1
  146   139   138 1
  147   140   139 1
  148   141   140 1
  149   142   140 1
  150   143   142 1
  151   144   138 1
  152   144   143 1
  153   145   144 1
  154   146   145 1
  155   147   146 1
  156   148   147 1
  157   149   148 1
  158   150   149 1
  159   151   150 1
  160   152   151 1
  161   153   152 1
  162   154   138 1
  163   155   138 1
  164   156   143 1
  165   157   147 1
  166   158   151 1
  167   160   159 1
  168   161   160 1
  169   162   161 1
  170   163   161 1
  171   164   163 1
  172   165   159 1
  173   165   164 1
  174   166   165 1
  175   167   166 1
  176   168   167 1
  177   169   168 1
  178   170   169 1
  179   171   170 1
  180   172   171 1
  181   173   172 1
  182   174   153 1
  183   174   173 1
  184   175   159 1
  185   176   159 1
  186   177   164 1
  187   178   168 1
  188   179   172 1
  189   180   179 1
  190   181   179 1
  191   182   179 1
  192   183   178 1
  193   184   178 1
  194   185   178 1
  195   186   177 1
  196   187   177 1
  197   188   177 1
  198   189   176 1
  199   190   176 1
  200   191   176 1
  201   192   175 1
  202   193   175 1
  203   194   175 1
  204   195   160 1
  205   196   160 1
  206   197   158 1
  207   198   158 1
  208   199   158 1
  209   200   157 1
  210   201   157 1
  211   202   157 1
  212   203   156 1
  213   204   156 1
  214   205   156 1
  215   206   155 1
  216   207   155 1
  217   208   155 1
  218   209   154 1
  219   210   154 1
  220   211   154 1
  221   212   141 1
  222   213   146 1
  223   214   145 1
  224   215   142 1
  225   216   142 1
  226   217   174 1
  227   218   173 1
  228   219   171 1
  229   220   170 1
  230   221   169 1
  231   222   140 1
  232   223   167 1
  233   224   166 1
  234   225   165 1
  235   226   163 1
  236   227   161 1
  237   228   139 1
  238   229   139 1
  239   230   153 1
  240   231   152 1
  241   232   150 1
  242   233   149 1
  243   234   148 1
  244   235   162 1
  245   65    153 1
  246   65    174 1
@<TRIPOS>SUBSTRUCTURE
      1 CLA               1 ****               0 ****  **** 
      2 LUT             138 ****               0 ****  **** 
