@<TRIPOS>MOLECULE
Cpptraj generated mol2 file.
  235   246     2     0     0
SMALL
USER_CHARGES


@<TRIPOS>ATOM
      1 CAA        78.6643   57.3022   34.8803 a2         1 CLA     -0.055900
      2 CAB        78.3930   61.5041   43.6171 c8         1 CLA     -0.148500
      3 CAC        71.5922   57.2214   43.1425 a2         1 CLA     -0.012600
      4 CAD        74.3716   54.7255   36.0302 ck         1 CLA      0.398800
      5 NA         77.6395   57.7927   38.1886 ns         1 CLA     -0.225500
      6 CBA        79.9171   57.0800   33.9615 a2         1 CLA     -0.135000
      7 CBB        79.5796   61.7406   44.2607 c0         1 CLA     -0.395200
      8 CBC        71.6208   55.7572   43.5023 a3         1 CLA     -0.037700
      9 CBD        75.9242   55.3056   35.7587 a1         1 CLA     -0.053900
     10 NB         77.3751   59.3761   40.7582 nm         1 CLA     -0.295700
     11 OBD        73.7250   53.9972   35.2592 o2         1 CLA     -0.494600
     12 CGA        80.3765   55.6712   33.7626 c4         1 CLA      0.827000
     13 CGD        76.8102   54.0721   35.6683 c4         1 CLA      0.655300
     14 ND         74.7414   56.9307   38.7409 nm         1 CLA     -0.291600
     15 CED        76.8765   51.6987   36.0234 a3         1 CLA      0.005400
     16 CHA        76.2473   56.2207   36.8763 cs         1 CLA     -0.123800
     17 CHB        79.3551   59.2230   39.2048 aa         1 CLA     -0.291900
     18 CHC        76.1433   59.5478   42.8270 aa         1 CLA     -0.090400
     19 CHD        72.9741   56.6863   40.4541 aa         1 CLA     -0.052000
     20 CMA        81.1363   56.9987   37.6739 a3         1 CLA     -0.230700
     21 CMB        80.6054   61.3845   41.1349 a3         1 CLA     -0.180800
     22 CMC        73.7821   58.8705   45.0054 a3         1 CLA     -0.134000
     23 CMD        71.8194   54.7013   38.2253 a3         1 CLA     -0.141100
     24 C1         81.4589   53.7955   34.7564 a2         1 CLA      0.023000
     25 C1A        77.4200   56.9341   37.0821 ac         1 CLA     -0.015100
     26 C1B        78.6483   59.7321   40.3251 cr         1 CLA      0.054700
     27 C1C        74.9761   58.7983   42.5875 cn         1 CLA     -0.005600
     28 C1D        73.5337   56.4137   39.1493 ap         1 CLA     -0.047300
     29 O1A        80.2684   55.0187   32.7237 o2         1 CLA     -0.610800
     30 O1D        77.7781   53.9912   34.9946 o2         1 CLA     -0.558200
     31 C2         81.7742   53.2679   36.1044 c8         1 CLA     -0.325100
     32 C2A        78.7625   56.8635   36.3108 a1         1 CLA      0.098600
     33 C2B        79.2449   60.6365   41.2604 cb         1 CLA      0.088500
     34 C2C        73.8686   58.4587   43.5073 cb         1 CLA      0.053700
     35 C2D        73.1010   55.4916   38.2256 cb         1 CLA      0.058900
     36 O2A        81.0835   55.1931   34.8549 o1         1 CLA     -0.437200
     37 O2D        76.2158   52.9795   36.3339 o1         1 CLA     -0.357600
     38 C3         82.7078   52.4158   36.4650 c5         1 CLA      0.031200
     39 C3A        79.8191   57.7491   37.1004 a1         1 CLA      0.166800
     40 C3B        78.3332   60.7608   42.3392 cb         1 CLA      0.035000
     41 C3C        72.9218   57.7576   42.7386 cb         1 CLA     -0.089900
     42 C3D        74.0933   55.3724   37.2554 cb         1 CLA     -0.035900
     43 C4         82.4609   50.9558   36.2637 a3         1 CLA     -0.053300
     44 C4A        78.8995   58.3033   38.2573 ac         1 CLA      0.001800
     45 C4B        77.2334   59.8728   42.0374 cn         1 CLA     -0.020900
     46 C4C        73.5315   57.4777   41.4708 cr         1 CLA     -0.044400
     47 C4D        75.1036   56.2595   37.6105 c6         1 CLA     -0.046000
     48 C5         84.0387   52.8770   37.0578 a2         1 CLA     -0.070400
     49 C6         83.8917   53.7594   38.3115 a2         1 CLA      0.043900
     50 C7         85.2855   53.9809   38.9095 a2         1 CLA     -0.150000
     51 C8         85.2566   54.7668   40.2747 a1         1 CLA      0.064200
     52 C9         86.7349   55.0586   40.6200 a3         1 CLA     -0.259300
     53 C10        84.6491   53.9268   41.4567 a2         1 CLA     -0.071900
     54 C11        83.3102   54.3322   41.8724 a2         1 CLA      0.014500
     55 C12        83.1204   55.6474   42.5305 a2         1 CLA     -0.112100
     56 C13        81.6280   56.0894   42.5964 a1         1 CLA      0.089200
     57 C14        81.3181   56.9510   41.3404 a3         1 CLA     -0.239100
     58 C15        81.2973   56.8222   43.8893 a2         1 CLA     -0.102200
     59 C16        82.0651   58.1149   44.3334 a2         1 CLA      0.023900
     60 C17        81.4729   58.8693   45.6228 a2         1 CLA     -0.105700
     61 C18        82.4889   59.7238   46.3803 a1         1 CLA      0.206800
     62 C19        81.6493   60.5932   47.3328 a3         1 CLA     -0.280100
     63 C20        83.5401   58.8703   47.1138 a3         1 CLA     -0.280100
     64 NC         74.7672   58.1802   41.3529 nx         1 CLA     -0.309200
     65 MG         76.0304   58.2309   39.6776 mg         1 CLA      0.895000
     66 HMD3       71.0384   55.3383   38.5744 dc         1 CLA      0.064300
     67 HMD2       71.6275   54.4602   37.1963 dc         1 CLA      0.064300
     68 HMD1       71.8636   53.7895   38.7950 dc         1 CLA      0.064300
     69 HMC3       72.9728   58.3771   45.6400 dc         1 CLA      0.052100
     70 HMC2       74.7712   58.7907   45.4101 dc         1 CLA      0.052100
     71 HMC1       73.5050   59.8865   45.0952 dc         1 CLA      0.052100
     72 HMB3       80.5287   62.3493   41.5739 dc         1 CLA      0.063600
     73 HMB2       81.2920   60.7320   41.6537 dc         1 CLA      0.063600
     74 HMB1       80.8441   61.4339   40.0826 dc         1 CLA      0.063600
     75 HMA3       81.6262   57.6925   38.3620 dc         1 CLA      0.058300
     76 HMA2       80.9016   56.0911   38.1313 dc         1 CLA      0.058300
     77 HMA1       81.9453   56.8509   36.9198 dc         1 CLA      0.058300
     78 HED3       76.6422   51.3685   35.0257 dc         1 CLA      0.079300
     79 HED2       77.9875   51.7840   36.2335 dc         1 CLA      0.079300
     80 HED1       76.4140   51.0262   36.7021 dc         1 CLA      0.079300
     81 HBC3       70.6228   55.4459   43.8169 dc         1 CLA      0.016300
     82 HBC2       71.7216   55.1323   42.5872 dc         1 CLA      0.016300
     83 HBC1       72.2571   55.4213   44.2800 dc         1 CLA      0.016300
     84 HBB2       79.4973   62.2439   45.2291 da         1 CLA      0.183000
     85 HBB1       80.5769   61.5302   43.7360 da         1 CLA      0.183000
     86 HBA2       79.6502   57.6047   33.0193 dc         1 CLA      0.029400
     87 HBA1       80.8183   57.6506   34.3165 dc         1 CLA      0.029400
     88 HAC2       71.2182   57.7609   44.0093 dc         1 CLA      0.029300
     89 HAC1       70.8602   57.4003   42.3754 dc         1 CLA      0.029300
     90 HAA2       77.8931   56.8598   34.3604 dc         1 CLA      0.028700
     91 HAA1       78.3022   58.3015   34.7837 dc         1 CLA      0.028700
     92 H203       84.0997   59.4235   47.9163 dc         1 CLA      0.065600
     93 H202       83.1780   57.9942   47.6248 dc         1 CLA      0.065600
     94 H201       84.3569   58.4973   46.5008 dc         1 CLA      0.065600
     95 H193       82.3978   61.2401   47.7855 dc         1 CLA      0.065600
     96 H192       81.0028   61.2117   46.7251 dc         1 CLA      0.065600
     97 H191       81.1116   59.9318   47.9955 dc         1 CLA      0.065600
     98 H172       80.5778   59.4118   45.2609 dc         1 CLA      0.027600
     99 H171       81.1232   58.0977   46.2399 dc         1 CLA      0.027600
    100 H162       83.1455   57.8975   44.4773 dc         1 CLA      0.002900
    101 H161       81.9251   58.8521   43.5184 dc         1 CLA      0.002900
    102 H152       80.2443   57.1603   43.8191 dc         1 CLA      0.029100
    103 H151       81.3774   56.0638   44.7236 dc         1 CLA      0.029100
    104 H143       81.6124   56.5345   40.3853 dc         1 CLA      0.063600
    105 H142       80.2150   57.1692   41.2957 dc         1 CLA      0.063600
    106 H141       81.8765   57.9804   41.4470 dc         1 CLA      0.063600
    107 H122       83.6069   55.6928   43.4605 dc         1 CLA      0.032500
    108 H121       83.6609   56.3800   41.9254 dc         1 CLA      0.032500
    109 H112       82.6696   54.2132   41.0292 dc         1 CLA      0.006600
    110 H111       82.9927   53.4913   42.5406 dc         1 CLA      0.006600
    111 H102       84.6236   52.8978   41.0680 dc         1 CLA      0.024100
    112 H101       85.3436   53.9958   42.3443 dc         1 CLA      0.024100
    113 HHD        71.9691   56.3331   40.6091 da         1 CLA      0.174300
    114 HHC        76.1122   60.0277   43.9046 da         1 CLA      0.136800
    115 HHB        80.3555   59.4802   38.9292 da         1 CLA      0.138300
    116 HBD        76.0602   55.8895   34.8359 dc         1 CLA      0.107700
    117 HAB        77.4847   61.9051   44.1170 da         1 CLA      0.155200
    118 H93        86.8167   55.7215   41.4298 dc         1 CLA      0.069500
    119 H92        87.2388   54.1464   40.8451 dc         1 CLA      0.069500
    120 H91        87.3497   55.4411   39.8041 dc         1 CLA      0.069500
    121 H8         84.7743   55.6934   40.0700 dc         1 CLA      0.029300
    122 H72        85.7070   52.9519   39.1507 dc         1 CLA      0.044400
    123 H71        85.9034   54.5590   38.2431 dc         1 CLA      0.044400
    124 H62        83.4568   54.7566   38.0422 dc         1 CLA      0.015600
    125 H61        83.2055   53.3265   39.0039 dc         1 CLA      0.015600
    126 H52        84.5986   52.0162   37.4092 dc         1 CLA      0.033200
    127 H51        84.5872   53.5761   36.3411 dc         1 CLA      0.033200
    128 H43        81.3767   50.7412   36.2561 dc         1 CLA      0.037000
    129 H42        83.0138   50.6537   35.3840 dc         1 CLA      0.037000
    130 H41        82.7440   50.5664   37.2420 dc         1 CLA      0.037000
    131 H3A        80.1793   58.6114   36.5406 dc         1 CLA      0.041100
    132 H2A        79.0962   55.8222   36.4101 dc         1 CLA      0.083100
    133 H2         81.1093   53.4234   36.8298 da         1 CLA      0.180900
    134 H18        83.0315   60.3584   45.6861 dc         1 CLA     -0.003900
    135 H13        80.8931   55.2622   42.4869 dc         1 CLA      0.019700
    136 H12        80.6138   53.1896   34.4391 dc         1 CLA      0.120400
    137 H11        82.3195   53.7472   34.1856 dc         1 CLA      0.120400
    138 C1         68.6240   60.6948   49.8876 Z1         2 LUT      0.509236
    139 C2         67.4767   60.4779   50.8121 Z2         2 LUT     -0.434695
    140 C3         66.4216   61.5588   50.8370 Z3         2 LUT      0.437453
    141 O3         66.0725   61.9396   52.1291 S1         2 LUT     -0.547129
    142 C4         66.6009   62.7842   49.9890 Z4         2 LUT     -0.468603
    143 C5         67.1096   62.3548   48.6515 Z5         2 LUT      0.279246
    144 C6         68.0324   61.3631   48.5681 Z6         2 LUT     -0.305473
    145 C7         68.4806   60.8500   47.2335 Z7         2 LUT      0.069402
    146 C8         69.3554   61.5320   46.4365 Z8         2 LUT     -0.191631
    147 C9         70.0453   61.0260   45.2733 Z9         2 LUT      0.196698
    148 C10        71.0949   61.7915   44.7928 Y1         2 LUT     -0.208611
    149 C11        71.8736   61.6726   43.4936 Y2         2 LUT      0.030784
    150 C12        73.0200   62.4032   43.2351 Y3         2 LUT     -0.220316
    151 C13        73.9162   62.4029   42.1132 Y4         2 LUT      0.215937
    152 C14        75.0545   63.0424   42.1597 Y5         2 LUT     -0.185793
    153 C15        76.1588   63.1113   41.2385 Y6         2 LUT     -0.057835
    154 C16        69.3557   59.2844   49.7599 Y7         2 LUT     -0.405615
    155 C17        69.6086   61.6766   50.5921 Y7         2 LUT     -0.405615
    156 C18        66.3210   63.0366   47.5061 Y9         2 LUT     -0.369639
    157 C19        69.5556   59.7888   44.5647 W1         2 LUT     -0.333362
    158 C20        73.4668   61.4918   40.9329 W2         2 LUT     -0.323439
    159 C21        87.6628   64.3978   35.4889 Z1         2 LUT      0.406104
    160 C22        88.5245   63.9563   34.2924 Z2         2 LUT     -0.404965
    161 C23        88.7978   65.1403   33.3152 Z3         2 LUT      0.391255
    162 O23        89.6122   64.6122   32.3222 S1         2 LUT     -0.528210
    163 C24        87.5440   65.7844   32.8784 W6         2 LUT     -0.258361
    164 C25        86.3880   65.7338   33.6112 Z5         2 LUT      0.133546
    165 C26        86.2712   64.9888   34.9309 W8         2 LUT     -0.147008
    166 C27        85.3684   65.5984   35.9275 Z7         2 LUT      0.023843
    167 C28        84.2557   65.1227   36.5638 Z8         2 LUT     -0.216987
    168 C29        83.7107   65.6106   37.8833 Z9         2 LUT      0.206524
    169 C30        82.7278   64.8528   38.3228 Y1         2 LUT     -0.215556
    170 C31        81.8401   65.1496   39.4072 Y2         2 LUT      0.025142
    171 C32        80.5992   64.5388   39.6082 Y3         2 LUT     -0.212209
    172 C33        79.5274   64.8116   40.5166 Y4         2 LUT      0.240937
    173 C34        78.3706   64.0546   40.5228 Y5         2 LUT     -0.218862
    174 C35        77.2071   63.9858   41.4082 Y6         2 LUT     -0.023547
    175 C36        88.4361   65.5235   36.3039 Y7         2 LUT     -0.393485
    176 C37        87.5328   63.2834   36.5397 Y7         2 LUT     -0.393485
    177 C38        85.0323   66.2359   33.1317 Y9         2 LUT     -0.387526
    178 C39        84.2887   66.8339   38.5503 W1         2 LUT     -0.322618
    179 C40        79.7840   65.8169   41.6013 W2         2 LUT     -0.358472
    180 H403       79.1998   65.6145   42.5080 R7         2 LUT      0.097720
    181 H402       80.8471   65.9547   41.9851 R7         2 LUT      0.097720
    182 H401       79.5366   66.7757   41.2310 R7         2 LUT      0.097720
    183 H393       84.2763   67.8040   37.9604 R4         2 LUT      0.082505
    184 H392       83.9178   67.0197   39.6098 R4         2 LUT      0.082505
    185 H391       85.3748   66.7022   38.7199 R4         2 LUT      0.082505
    186 H383       84.2204   65.4749   33.3165 R1         2 LUT      0.104030
    187 H382       84.6836   67.1539   33.6800 R1         2 LUT      0.104030
    188 H381       85.0371   66.6020   32.1165 R1         2 LUT      0.104030
    189 H373       88.5140   63.1147   37.0372 T4         2 LUT      0.089537
    190 H372       86.9882   63.6661   37.3846 T4         2 LUT      0.089537
    191 H371       87.0035   62.4456   36.1730 T4         2 LUT      0.089537
    192 H363       88.1067   65.6918   37.3194 T4         2 LUT      0.089537
    193 H362       89.4837   65.1434   36.5264 T4         2 LUT      0.089537
    194 H361       88.7041   66.4140   35.7598 T4         2 LUT      0.089537
    195 H222       89.5467   63.7344   34.7090 U2         2 LUT      0.127376
    196 H221       88.1108   63.0781   33.7193 U2         2 LUT      0.127376
    197 H203       74.1383   61.5845   40.0591 R7         2 LUT      0.087068
    198 H202       73.4831   60.3958   41.1427 R7         2 LUT      0.087068
    199 H201       72.5614   61.7987   40.4605 R7         2 LUT      0.087068
    200 H193       69.7376   58.8838   45.0872 R4         2 LUT      0.089716
    201 H192       68.5611   59.8788   44.2684 R4         2 LUT      0.089716
    202 H191       70.0263   59.5416   43.6093 R4         2 LUT      0.089716
    203 H183       65.2580   63.1559   47.7537 R1         2 LUT      0.094572
    204 H182       66.6903   64.0245   47.2882 R1         2 LUT      0.094572
    205 H181       66.3171   62.5562   46.5058 R1         2 LUT      0.094572
    206 H173       70.6366   61.6529   50.0805 T4         2 LUT      0.093752
    207 H172       69.2495   62.6957   50.4548 T4         2 LUT      0.093752
    208 H171       69.6900   61.5136   51.7278 T4         2 LUT      0.093752
    209 H163       69.7443   59.0050   50.7293 T4         2 LUT      0.093752
    210 H162       68.6308   58.5208   49.5243 T4         2 LUT      0.093752
    211 H161       70.1075   59.1241   48.9528 T4         2 LUT      0.093752
    212 HO3        66.8472   62.2880   52.5980 Q1         2 LUT      0.300121
    213 H8         69.6603   62.5066   46.7958 U7         2 LUT      0.080784
    214 H7         68.3234   59.7991   47.0294 U6         2 LUT      0.042190
    215 H42        65.6101   63.2727   49.8392 U5         2 LUT      0.145166
    216 H41        67.2515   63.4506   50.5019 U5         2 LUT      0.145166
    217 H35        77.0773   64.5959   42.3005 T3         2 LUT      0.077919
    218 H34        78.3461   63.2722   39.8320 T2         2 LUT      0.073626
    219 H32        80.4580   63.7086   38.8600 T1         2 LUT      0.092510
    220 H31        81.9509   66.0873   40.0022 U9         2 LUT      0.070048
    221 H30        82.3937   63.9984   37.6950 U8         2 LUT      0.085442
    222 H3         65.4807   61.0607   50.4553 U3         2 LUT     -0.031596
    223 H28        83.7510   64.3993   35.9203 U7         2 LUT      0.084728
    224 H27        85.9244   66.2957   36.4769 U6         2 LUT      0.087291
    225 H26        85.6917   64.0377   34.7155 Q6         2 LUT      0.075325
    226 H24        87.6525   66.3951   31.9815 Q5         2 LUT      0.094482
    227 H23        89.3805   65.9305   33.8301 U3         2 LUT     -0.024869
    228 H22        66.8984   59.6924   50.4263 U2         2 LUT      0.127376
    229 H21        67.7801   60.1589   51.7847 U2         2 LUT      0.127376
    230 H15        76.1878   62.4263   40.3955 T3         2 LUT      0.093200
    231 H14        75.2013   63.6221   43.1542 T2         2 LUT      0.068865
    232 H12        73.3398   63.0737   44.0606 T1         2 LUT      0.095507
    233 H11        71.4317   60.9637   42.8087 U9         2 LUT      0.068930
    234 H10        71.4176   62.6804   45.3333 U8         2 LUT      0.083911
    235 H1         89.1483   64.1718   31.5618 Q1         2 LUT      0.297311
@<TRIPOS>BOND
    1     6     1 1
    2     7     2 1
    3     8     3 1
    4     9     4 1
    5    11     4 1
    6    12     6 1
    7    13     9 1
    8    16     9 1
    9    25     5 1
   10    25    16 1
   11    26    10 1
   12    26    17 1
   13    27    18 1
   14    28    14 1
   15    28    19 1
   16    29    12 1
   17    30    13 1
   18    31    24 1
   19    32     1 1
   20    32    25 1
   21    33    21 1
   22    33    26 1
   23    34    22 1
   24    34    27 1
   25    35    23 1
   26    35    28 1
   27    36    12 1
   28    36    24 1
   29    37    13 1
   30    37    15 1
   31    38    31 1
   32    39    20 1
   33    39    32 1
   34    40     2 1
   35    40    33 1
   36    41     3 1
   37    41    34 1
   38    42     4 1
   39    42    35 1
   40    43    38 1
   41    44     5 1
   42    44    17 1
   43    44    39 1
   44    45    10 1
   45    45    18 1
   46    45    40 1
   47    46    19 1
   48    46    41 1
   49    47    14 1
   50    47    16 1
   51    47    42 1
   52    48    38 1
   53    49    48 1
   54    50    49 1
   55    51    50 1
   56    52    51 1
   57    53    51 1
   58    54    53 1
   59    55    54 1
   60    56    55 1
   61    57    56 1
   62    58    56 1
   63    59    58 1
   64    60    59 1
   65    61    60 1
   66    62    61 1
   67    63    61 1
   68    64    27 1
   69    64    46 1
   70    65     5 1
   71    65    10 1
   72    65    64 1
   73    65    14 1
   74    66    23 1
   75    67    23 1
   76    68    23 1
   77    69    22 1
   78    70    22 1
   79    71    22 1
   80    72    21 1
   81    73    21 1
   82    74    21 1
   83    75    20 1
   84    76    20 1
   85    77    20 1
   86    78    15 1
   87    79    15 1
   88    80    15 1
   89    81     8 1
   90    82     8 1
   91    83     8 1
   92    84     7 1
   93    85     7 1
   94    86     6 1
   95    87     6 1
   96    88     3 1
   97    89     3 1
   98    90     1 1
   99    91     1 1
  100    92    63 1
  101    93    63 1
  102    94    63 1
  103    95    62 1
  104    96    62 1
  105    97    62 1
  106    98    60 1
  107    99    60 1
  108   100    59 1
  109   101    59 1
  110   102    58 1
  111   103    58 1
  112   104    57 1
  113   105    57 1
  114   106    57 1
  115   107    55 1
  116   108    55 1
  117   109    54 1
  118   110    54 1
  119   111    53 1
  120   112    53 1
  121   113    19 1
  122   114    18 1
  123   115    17 1
  124   116     9 1
  125   117     2 1
  126   118    52 1
  127   119    52 1
  128   120    52 1
  129   121    51 1
  130   122    50 1
  131   123    50 1
  132   124    49 1
  133   125    49 1
  134   126    48 1
  135   127    48 1
  136   128    43 1
  137   129    43 1
  138   130    43 1
  139   131    39 1
  140   132    32 1
  141   133    31 1
  142   134    61 1
  143   135    56 1
  144   136    24 1
  145   137    24 1
  146   139   138 1
  147   140   139 1
  148   141   140 1
  149   142   140 1
  150   143   142 1
  151   144   138 1
  152   144   143 1
  153   145   144 1
  154   146   145 1
  155   147   146 1
  156   148   147 1
  157   149   148 1
  158   150   149 1
  159   151   150 1
  160   152   151 1
  161   153   152 1
  162   154   138 1
  163   155   138 1
  164   156   143 1
  165   157   147 1
  166   158   151 1
  167   160   159 1
  168   161   160 1
  169   162   161 1
  170   163   161 1
  171   164   163 1
  172   165   159 1
  173   165   164 1
  174   166   165 1
  175   167   166 1
  176   168   167 1
  177   169   168 1
  178   170   169 1
  179   171   170 1
  180   172   171 1
  181   173   172 1
  182   174   153 1
  183   174   173 1
  184   175   159 1
  185   176   159 1
  186   177   164 1
  187   178   168 1
  188   179   172 1
  189   180   179 1
  190   181   179 1
  191   182   179 1
  192   183   178 1
  193   184   178 1
  194   185   178 1
  195   186   177 1
  196   187   177 1
  197   188   177 1
  198   189   176 1
  199   190   176 1
  200   191   176 1
  201   192   175 1
  202   193   175 1
  203   194   175 1
  204   195   160 1
  205   196   160 1
  206   197   158 1
  207   198   158 1
  208   199   158 1
  209   200   157 1
  210   201   157 1
  211   202   157 1
  212   203   156 1
  213   204   156 1
  214   205   156 1
  215   206   155 1
  216   207   155 1
  217   208   155 1
  218   209   154 1
  219   210   154 1
  220   211   154 1
  221   212   141 1
  222   213   146 1
  223   214   145 1
  224   215   142 1
  225   216   142 1
  226   217   174 1
  227   218   173 1
  228   219   171 1
  229   220   170 1
  230   221   169 1
  231   222   140 1
  232   223   167 1
  233   224   166 1
  234   225   165 1
  235   226   163 1
  236   227   161 1
  237   228   139 1
  238   229   139 1
  239   230   153 1
  240   231   152 1
  241   232   150 1
  242   233   149 1
  243   234   148 1
  244   235   162 1
  245   65    153 1
  246   65    174 1
@<TRIPOS>SUBSTRUCTURE
      1 CLA               1 ****               0 ****  **** 
      2 LUT             138 ****               0 ****  **** 
