@<TRIPOS>MOLECULE
Cpptraj generated mol2 file.
  235   246     2     0     0
SMALL
USER_CHARGES


@<TRIPOS>ATOM
      1 CAA        77.8211   57.3375   33.2363 a2         1 CLA     -0.055900
      2 CAB        78.2812   61.3931   42.1649 c8         1 CLA     -0.148500
      3 CAC        70.9218   58.0132   41.9262 a2         1 CLA     -0.012600
      4 CAD        73.4125   55.3007   34.4387 ck         1 CLA      0.398800
      5 NA         76.7206   58.0706   36.5902 ns         1 CLA     -0.225500
      6 CBA        78.9256   56.9481   32.3449 a2         1 CLA     -0.135000
      7 CBB        79.4878   61.8294   42.5765 c0         1 CLA     -0.395200
      8 CBC        70.8513   56.5050   42.0257 a3         1 CLA     -0.037700
      9 CBD        74.9040   55.6896   34.1334 a1         1 CLA     -0.053900
     10 NB         76.7878   59.5391   39.2165 nm         1 CLA     -0.295700
     11 OBD        72.7857   54.5738   33.6897 o2         1 CLA     -0.494600
     12 CGA        79.1910   55.4734   32.1663 c4         1 CLA      0.827000
     13 CGD        75.6802   54.3709   34.0333 c4         1 CLA      0.655300
     14 ND         73.9648   57.3431   37.3175 nm         1 CLA     -0.291600
     15 CED        76.3310   52.3206   34.7656 a3         1 CLA      0.005400
     16 CHA        75.3157   56.6081   35.2788 cs         1 CLA     -0.123800
     17 CHB        78.5360   59.2527   37.5687 aa         1 CLA     -0.291900
     18 CHC        75.5416   60.0041   41.2614 aa         1 CLA     -0.090400
     19 CHD        72.1455   57.4176   38.9040 aa         1 CLA     -0.052000
     20 CMA        80.0582   56.8256   35.9760 a3         1 CLA     -0.230700
     21 CMB        80.1235   61.0689   39.4831 a3         1 CLA     -0.180800
     22 CMC        73.4327   59.4125   43.4064 a3         1 CLA     -0.134000
     23 CMD        70.7488   55.7230   36.9088 a3         1 CLA     -0.141100
     24 C1         79.8982   53.4577   33.2646 a2         1 CLA      0.023000
     25 C1A        76.4937   57.2796   35.4906 ac         1 CLA     -0.015100
     26 C1B        78.0266   59.8628   38.7274 cr         1 CLA      0.054700
     27 C1C        74.3226   59.3504   40.9958 cn         1 CLA     -0.005600
     28 C1D        72.6699   57.0830   37.6640 ap         1 CLA     -0.047300
     29 O1A        79.1329   54.9062   31.0698 o2         1 CLA     -0.610800
     30 O1D        76.3378   54.0920   33.0183 o2         1 CLA     -0.558200
     31 C2         80.5965   53.0209   34.5995 c8         1 CLA     -0.325100
     32 C2A        77.7795   56.9998   34.7214 a1         1 CLA      0.098600
     33 C2B        78.7184   60.6646   39.6799 cb         1 CLA      0.088500
     34 C2C        73.3005   59.0551   41.9471 cb         1 CLA      0.053700
     35 C2D        72.0884   56.2689   36.7365 cb         1 CLA      0.058900
     36 O2A        79.5659   54.8950   33.3735 o1         1 CLA     -0.437200
     37 O2D        75.7514   53.6272   35.1449 o1         1 CLA     -0.357600
     38 C3         81.4067   51.9802   34.8333 c5         1 CLA      0.031200
     39 C3A        78.9003   57.7772   35.5200 a1         1 CLA      0.166800
     40 C3B        77.9314   60.7970   40.8372 cb         1 CLA      0.035000
     41 C3C        72.2780   58.3342   41.2654 cb         1 CLA     -0.089900
     42 C3D        73.0662   56.0155   35.7194 cb         1 CLA     -0.035900
     43 C4         80.8812   50.7329   35.5365 a3         1 CLA     -0.053300
     44 C4A        78.0104   58.4000   36.6384 ac         1 CLA      0.001800
     45 C4B        76.6625   60.1613   40.4714 cn         1 CLA     -0.020900
     46 C4C        72.8015   58.1602   39.9143 cr         1 CLA     -0.044400
     47 C4D        74.2020   56.6886   36.1616 c6         1 CLA     -0.046000
     48 C5         82.7905   52.1842   34.4329 a2         1 CLA     -0.070400
     49 C6         83.4877   53.5153   34.8739 a2         1 CLA      0.043900
     50 C7         83.5763   53.5427   36.4100 a2         1 CLA     -0.150000
     51 C8         84.5705   54.6194   37.0109 a1         1 CLA      0.064200
     52 C9         86.0261   54.1056   36.8408 a3         1 CLA     -0.259300
     53 C10        84.3481   54.9162   38.4385 a2         1 CLA     -0.071900
     54 C11        83.0035   55.6161   38.7921 a2         1 CLA      0.014500
     55 C12        83.1576   56.1802   40.2954 a2         1 CLA     -0.112100
     56 C13        81.7676   56.4384   40.9722 a1         1 CLA      0.089200
     57 C14        80.8225   57.3075   40.1647 a3         1 CLA     -0.239100
     58 C15        81.9627   56.9234   42.4644 a2         1 CLA     -0.102200
     59 C16        82.6539   58.3061   42.6053 a2         1 CLA      0.023900
     60 C17        82.4957   58.8082   44.0770 a2         1 CLA     -0.105700
     61 C18        83.1305   60.2023   44.4349 a1         1 CLA      0.206800
     62 C19        82.7583   60.7129   45.8691 a3         1 CLA     -0.280100
     63 C20        84.6931   60.0152   44.4492 a3         1 CLA     -0.280100
     64 NC         74.0487   58.7078   39.8314 nx         1 CLA     -0.309200
     65 MG         75.3200   58.5490   38.2372 mg         1 CLA      0.895000
     66 HMD3       70.0793   56.5460   36.6709 dc         1 CLA      0.064300
     67 HMD2       70.4428   54.9530   36.2298 dc         1 CLA      0.064300
     68 HMD1       70.5493   55.3644   37.9527 dc         1 CLA      0.064300
     69 HMC3       72.7858   58.7634   44.0114 dc         1 CLA      0.052100
     70 HMC2       74.4492   59.2033   43.7870 dc         1 CLA      0.052100
     71 HMC1       73.2914   60.4263   43.5869 dc         1 CLA      0.052100
     72 HMB3       80.5129   61.1725   38.4222 dc         1 CLA      0.063600
     73 HMB2       80.3152   62.0063   39.9873 dc         1 CLA      0.063600
     74 HMB1       80.7199   60.3355   39.9784 dc         1 CLA      0.063600
     75 HMA3       80.7575   57.5037   36.4556 dc         1 CLA      0.058300
     76 HMA2       79.6255   56.0913   36.6756 dc         1 CLA      0.058300
     77 HMA1       80.4646   56.2757   35.1051 dc         1 CLA      0.058300
     78 HED3       77.3671   52.3698   34.5147 dc         1 CLA      0.079300
     79 HED2       76.4366   51.7724   35.6919 dc         1 CLA      0.079300
     80 HED1       75.8367   51.5767   34.1305 dc         1 CLA      0.079300
     81 HBC3       70.0365   56.2347   42.6461 dc         1 CLA      0.016300
     82 HBC2       70.6718   56.0553   41.0791 dc         1 CLA      0.016300
     83 HBC1       71.7776   56.1473   42.4463 dc         1 CLA      0.016300
     84 HBB2       79.6583   62.1207   43.6132 da         1 CLA      0.183000
     85 HBB1       80.3637   61.9472   41.8793 da         1 CLA      0.183000
     86 HBA2       78.8595   57.3019   31.3324 dc         1 CLA      0.029400
     87 HBA1       79.8158   57.4120   32.6000 dc         1 CLA      0.029400
     88 HAC2       70.8332   58.5169   42.8684 dc         1 CLA      0.029300
     89 HAC1       70.0481   58.3177   41.3590 dc         1 CLA      0.029300
     90 HAA2       76.8531   57.0421   32.8665 dc         1 CLA      0.028700
     91 HAA1       77.7647   58.4881   33.2059 dc         1 CLA      0.028700
     92 H203       85.1738   61.0013   44.7256 dc         1 CLA      0.065600
     93 H202       84.9236   59.2688   45.1702 dc         1 CLA      0.065600
     94 H201       85.1639   59.6310   43.5389 dc         1 CLA      0.065600
     95 H193       82.5618   59.9843   46.6238 dc         1 CLA      0.065600
     96 H192       83.3677   61.5192   46.1271 dc         1 CLA      0.065600
     97 H191       81.8002   61.2987   45.8189 dc         1 CLA      0.065600
     98 H172       81.4062   58.9136   44.1058 dc         1 CLA      0.027600
     99 H171       82.7442   58.0736   44.8484 dc         1 CLA      0.027600
    100 H162       83.7522   58.2312   42.3683 dc         1 CLA      0.002900
    101 H161       82.1182   58.9745   41.9217 dc         1 CLA      0.002900
    102 H152       80.8950   56.9539   42.8684 dc         1 CLA      0.029100
    103 H151       82.5843   56.1815   42.9984 dc         1 CLA      0.029100
    104 H143       80.3422   56.5413   39.5104 dc         1 CLA      0.063600
    105 H142       79.9500   57.7057   40.8036 dc         1 CLA      0.063600
    106 H141       81.2538   58.1801   39.4967 dc         1 CLA      0.063600
    107 H122       83.7154   55.4749   40.9623 dc         1 CLA      0.032500
    108 H121       83.7391   57.0958   40.3765 dc         1 CLA      0.032500
    109 H112       82.8132   56.4437   38.1348 dc         1 CLA      0.006600
    110 H111       82.2206   54.8552   38.6632 dc         1 CLA      0.006600
    111 H102       84.5084   54.2594   39.2356 dc         1 CLA      0.024100
    112 H101       85.1502   55.6754   38.5123 dc         1 CLA      0.024100
    113 HHD        71.1623   57.1760   39.1969 da         1 CLA      0.174300
    114 HHC        75.6775   60.5303   42.2232 da         1 CLA      0.136800
    115 HHB        79.5810   59.4352   37.3057 da         1 CLA      0.138300
    116 HBD        74.8496   56.1926   33.1379 dc         1 CLA      0.107700
    117 HAB        77.5977   61.2209   42.9734 da         1 CLA      0.155200
    118 H93        86.1543   53.1299   37.2149 dc         1 CLA      0.069500
    119 H92        86.2435   54.0168   35.7657 dc         1 CLA      0.069500
    120 H91        86.7952   54.7322   37.2794 dc         1 CLA      0.069500
    121 H8         84.2108   55.4840   36.4574 dc         1 CLA      0.029300
    122 H72        82.5335   53.8312   36.6295 dc         1 CLA      0.044400
    123 H71        83.7644   52.5720   36.9215 dc         1 CLA      0.044400
    124 H62        84.5017   53.3909   34.4234 dc         1 CLA      0.015600
    125 H61        83.0425   54.3934   34.2891 dc         1 CLA      0.015600
    126 H52        83.4222   51.3849   34.8155 dc         1 CLA      0.033200
    127 H51        82.6895   52.2128   33.3655 dc         1 CLA      0.033200
    128 H43        81.7798   50.1775   36.0683 dc         1 CLA      0.037000
    129 H42        80.0368   50.8639   36.1858 dc         1 CLA      0.037000
    130 H41        80.5052   49.9439   34.8875 dc         1 CLA      0.037000
    131 H3A        79.2353   58.5772   34.8123 dc         1 CLA      0.041100
    132 H2A        77.8516   55.9421   34.8825 dc         1 CLA      0.083100
    133 H2         80.6503   53.7784   35.3757 da         1 CLA      0.180900
    134 H18        82.7446   60.9452   43.6658 dc         1 CLA     -0.003900
    135 H13        81.2663   55.4804   41.2727 dc         1 CLA      0.019700
    136 H12        78.9026   53.0733   33.2477 dc         1 CLA      0.120400
    137 H11        80.4010   53.0883   32.3195 dc         1 CLA      0.120400
    138 C1         67.6428   60.8885   48.1590 Z1         2 LUT      0.509236
    139 C2         66.5264   60.6080   49.1089 Z2         2 LUT     -0.434695
    140 C3         65.7015   61.7123   49.7984 Z3         2 LUT      0.437453
    141 O3         66.2278   62.1579   51.0339 S1         2 LUT     -0.547129
    142 C4         65.7006   62.9570   48.9062 Z4         2 LUT     -0.468603
    143 C5         66.2472   62.9607   47.5668 Z5         2 LUT      0.279246
    144 C6         67.1651   61.9711   47.1792 Z6         2 LUT     -0.305473
    145 C7         67.3868   61.6580   45.8155 Z7         2 LUT      0.069402
    146 C8         68.5014   61.8137   45.1307 Z8         2 LUT     -0.191631
    147 C9         68.8612   61.4249   43.7858 Z9         2 LUT      0.196698
    148 C10        69.9021   62.1370   43.2436 Y1         2 LUT     -0.208611
    149 C11        70.5760   62.0190   41.9535 Y2         2 LUT      0.030784
    150 C12        71.6849   62.7513   41.6886 Y3         2 LUT     -0.220316
    151 C13        72.6232   62.6418   40.6498 Y4         2 LUT      0.215937
    152 C14        73.7463   63.4453   40.6522 Y5         2 LUT     -0.185793
    153 C15        74.8038   63.4961   39.6854 Y6         2 LUT     -0.057835
    154 C16        67.9862   59.5579   47.5388 Y7         2 LUT     -0.405615
    155 C17        68.8314   61.3687   49.0751 Y7         2 LUT     -0.405615
    156 C18        65.5844   63.8631   46.5798 Y9         2 LUT     -0.369639
    157 C19        68.1357   60.3728   43.0208 W1         2 LUT     -0.333362
    158 C20        72.2253   61.7525   39.5194 W2         2 LUT     -0.323439
    159 C21        86.7636   63.9912   34.0282 Z1         2 LUT      0.406104
    160 C22        87.4664   63.5470   32.7251 Z2         2 LUT     -0.404965
    161 C23        87.5443   64.6603   31.7024 Z3         2 LUT      0.391255
    162 O23        88.3349   64.3197   30.5737 S1         2 LUT     -0.528210
    163 C24        86.2953   65.4590   31.5851 W6         2 LUT     -0.258361
    164 C25        85.2601   65.4225   32.4956 Z5         2 LUT      0.133546
    165 C26        85.2592   64.4901   33.8046 W8         2 LUT     -0.147008
    166 C27        84.6123   65.1755   34.9189 Z7         2 LUT      0.023843
    167 C28        83.5748   64.7039   35.6196 Z8         2 LUT     -0.216987
    168 C29        82.7275   65.3416   36.5980 Z9         2 LUT      0.206524
    169 C30        81.5759   64.6264   37.0442 Y1         2 LUT     -0.215556
    170 C31        80.6576   64.9197   38.1108 Y2         2 LUT      0.025142
    171 C32        79.5137   64.2054   38.2049 Y3         2 LUT     -0.212209
    172 C33        78.4244   64.3677   39.1646 Y4         2 LUT      0.240937
    173 C34        77.2102   63.8153   38.9416 Y5         2 LUT     -0.218862
    174 C35        76.0390   63.9564   39.8475 Y6         2 LUT     -0.023547
    175 C36        87.7476   65.0021   34.8059 Y7         2 LUT     -0.393485
    176 C37        86.7643   62.6916   34.8227 Y7         2 LUT     -0.393485
    177 C38        84.0753   66.3613   32.2305 Y9         2 LUT     -0.387526
    178 C39        83.0398   66.7824   37.0805 W1         2 LUT     -0.322618
    179 C40        78.7190   65.0980   40.4332 W2         2 LUT     -0.358472
    180 H403       79.7475   65.4099   40.7050 R7         2 LUT      0.097720
    181 H402       77.9333   65.8634   40.5947 R7         2 LUT      0.097720
    182 H401       78.4723   64.3781   41.2102 R7         2 LUT      0.097720
    183 H393       82.6308   67.5236   36.3889 R4         2 LUT      0.082505
    184 H392       82.7087   66.9359   38.0100 R4         2 LUT      0.082505
    185 H391       84.1005   66.7658   37.1477 R4         2 LUT      0.082505
    186 H383       83.0786   65.8197   32.1680 R1         2 LUT      0.104030
    187 H382       83.9469   67.1076   33.0889 R1         2 LUT      0.104030
    188 H381       84.2044   66.9713   31.3498 R1         2 LUT      0.104030
    189 H373       86.2001   61.9035   34.2788 T4         2 LUT      0.089537
    190 H372       87.7301   62.3723   34.9533 T4         2 LUT      0.089537
    191 H371       86.3575   62.8843   35.8752 T4         2 LUT      0.089537
    192 H363       88.6861   64.5001   35.1066 T4         2 LUT      0.089537
    193 H362       88.0708   65.8208   34.2075 T4         2 LUT      0.089537
    194 H361       87.3229   65.3878   35.7515 T4         2 LUT      0.089537
    195 H222       88.4790   63.2696   32.9285 U2         2 LUT      0.127376
    196 H221       86.8423   62.8012   32.2205 U2         2 LUT      0.127376
    197 H203       71.3476   62.1971   39.0638 R7         2 LUT      0.087068
    198 H202       72.8628   61.7756   38.6569 R7         2 LUT      0.087068
    199 H201       72.0279   60.7429   39.7783 R7         2 LUT      0.087068
    200 H193       68.5450   60.1981   42.0476 R4         2 LUT      0.089716
    201 H192       68.2409   59.3638   43.4561 R4         2 LUT      0.089716
    202 H191       67.0784   60.5059   42.9412 R4         2 LUT      0.089716
    203 H183       65.2152   63.3875   45.6403 R1         2 LUT      0.094572
    204 H182       64.9335   64.6575   47.0388 R1         2 LUT      0.094572
    205 H181       66.3834   64.4740   46.1514 R1         2 LUT      0.094572
    206 H173       69.6312   61.9096   48.5783 T4         2 LUT      0.093752
    207 H172       68.4036   61.9253   49.9293 T4         2 LUT      0.093752
    208 H171       69.2423   60.4506   49.5985 T4         2 LUT      0.093752
    209 H163       68.4914   58.8325   48.2673 T4         2 LUT      0.093752
    210 H162       67.2593   59.2195   46.8148 T4         2 LUT      0.093752
    211 H161       68.9223   59.7432   46.9937 T4         2 LUT      0.093752
    212 HO3        66.1258   61.4483   51.7343 Q1         2 LUT      0.300121
    213 H8         69.3609   62.2545   45.6288 U7         2 LUT      0.080784
    214 H7         66.6437   61.2916   45.2297 U6         2 LUT      0.042190
    215 H42        64.6114   63.1601   48.7378 U5         2 LUT      0.145166
    216 H41        66.1137   63.8254   49.4659 U5         2 LUT      0.145166
    217 H35        76.3073   64.3167   40.8237 T3         2 LUT      0.077919
    218 H34        77.0770   63.3660   37.9715 T2         2 LUT      0.073626
    219 H32        79.3522   63.5220   37.4151 T1         2 LUT      0.092510
    220 H31        80.7472   65.6835   38.8851 U9         2 LUT      0.070048
    221 H30        81.4687   63.6523   36.5487 U8         2 LUT      0.085442
    222 H3         64.6718   61.4486   50.0139 U3         2 LUT     -0.031596
    223 H28        83.1221   63.8355   35.2112 U7         2 LUT      0.084728
    224 H27        84.9061   66.1590   35.0985 U6         2 LUT      0.087291
    225 H26        84.7212   63.5369   33.5585 Q6         2 LUT      0.075325
    226 H24        86.2709   66.1417   30.7860 Q5         2 LUT      0.094482
    227 H23        88.2009   65.4028   32.1671 U3         2 LUT     -0.024869
    228 H22        65.7821   60.2225   48.4807 U2         2 LUT      0.127376
    229 H21        66.8078   59.8125   49.8836 U2         2 LUT      0.127376
    230 H15        74.5907   63.0104   38.7524 T3         2 LUT      0.093200
    231 H14        73.8880   64.0869   41.5085 T2         2 LUT      0.068865
    232 H12        71.8408   63.4721   42.4969 T1         2 LUT      0.095507
    233 H11        70.1190   61.1691   41.3495 U9         2 LUT      0.068930
    234 H10        70.3929   62.8803   43.9634 U8         2 LUT      0.083911
    235 H1         87.8296   63.9094   29.9129 Q1         2 LUT      0.297311
@<TRIPOS>BOND
    1     6     1 1
    2     7     2 1
    3     8     3 1
    4     9     4 1
    5    11     4 1
    6    12     6 1
    7    13     9 1
    8    16     9 1
    9    25     5 1
   10    25    16 1
   11    26    10 1
   12    26    17 1
   13    27    18 1
   14    28    14 1
   15    28    19 1
   16    29    12 1
   17    30    13 1
   18    31    24 1
   19    32     1 1
   20    32    25 1
   21    33    21 1
   22    33    26 1
   23    34    22 1
   24    34    27 1
   25    35    23 1
   26    35    28 1
   27    36    12 1
   28    36    24 1
   29    37    13 1
   30    37    15 1
   31    38    31 1
   32    39    20 1
   33    39    32 1
   34    40     2 1
   35    40    33 1
   36    41     3 1
   37    41    34 1
   38    42     4 1
   39    42    35 1
   40    43    38 1
   41    44     5 1
   42    44    17 1
   43    44    39 1
   44    45    10 1
   45    45    18 1
   46    45    40 1
   47    46    19 1
   48    46    41 1
   49    47    14 1
   50    47    16 1
   51    47    42 1
   52    48    38 1
   53    49    48 1
   54    50    49 1
   55    51    50 1
   56    52    51 1
   57    53    51 1
   58    54    53 1
   59    55    54 1
   60    56    55 1
   61    57    56 1
   62    58    56 1
   63    59    58 1
   64    60    59 1
   65    61    60 1
   66    62    61 1
   67    63    61 1
   68    64    27 1
   69    64    46 1
   70    65     5 1
   71    65    10 1
   72    65    64 1
   73    65    14 1
   74    66    23 1
   75    67    23 1
   76    68    23 1
   77    69    22 1
   78    70    22 1
   79    71    22 1
   80    72    21 1
   81    73    21 1
   82    74    21 1
   83    75    20 1
   84    76    20 1
   85    77    20 1
   86    78    15 1
   87    79    15 1
   88    80    15 1
   89    81     8 1
   90    82     8 1
   91    83     8 1
   92    84     7 1
   93    85     7 1
   94    86     6 1
   95    87     6 1
   96    88     3 1
   97    89     3 1
   98    90     1 1
   99    91     1 1
  100    92    63 1
  101    93    63 1
  102    94    63 1
  103    95    62 1
  104    96    62 1
  105    97    62 1
  106    98    60 1
  107    99    60 1
  108   100    59 1
  109   101    59 1
  110   102    58 1
  111   103    58 1
  112   104    57 1
  113   105    57 1
  114   106    57 1
  115   107    55 1
  116   108    55 1
  117   109    54 1
  118   110    54 1
  119   111    53 1
  120   112    53 1
  121   113    19 1
  122   114    18 1
  123   115    17 1
  124   116     9 1
  125   117     2 1
  126   118    52 1
  127   119    52 1
  128   120    52 1
  129   121    51 1
  130   122    50 1
  131   123    50 1
  132   124    49 1
  133   125    49 1
  134   126    48 1
  135   127    48 1
  136   128    43 1
  137   129    43 1
  138   130    43 1
  139   131    39 1
  140   132    32 1
  141   133    31 1
  142   134    61 1
  143   135    56 1
  144   136    24 1
  145   137    24 1
  146   139   138 1
  147   140   139 1
  148   141   140 1
  149   142   140 1
  150   143   142 1
  151   144   138 1
  152   144   143 1
  153   145   144 1
  154   146   145 1
  155   147   146 1
  156   148   147 1
  157   149   148 1
  158   150   149 1
  159   151   150 1
  160   152   151 1
  161   153   152 1
  162   154   138 1
  163   155   138 1
  164   156   143 1
  165   157   147 1
  166   158   151 1
  167   160   159 1
  168   161   160 1
  169   162   161 1
  170   163   161 1
  171   164   163 1
  172   165   159 1
  173   165   164 1
  174   166   165 1
  175   167   166 1
  176   168   167 1
  177   169   168 1
  178   170   169 1
  179   171   170 1
  180   172   171 1
  181   173   172 1
  182   174   153 1
  183   174   173 1
  184   175   159 1
  185   176   159 1
  186   177   164 1
  187   178   168 1
  188   179   172 1
  189   180   179 1
  190   181   179 1
  191   182   179 1
  192   183   178 1
  193   184   178 1
  194   185   178 1
  195   186   177 1
  196   187   177 1
  197   188   177 1
  198   189   176 1
  199   190   176 1
  200   191   176 1
  201   192   175 1
  202   193   175 1
  203   194   175 1
  204   195   160 1
  205   196   160 1
  206   197   158 1
  207   198   158 1
  208   199   158 1
  209   200   157 1
  210   201   157 1
  211   202   157 1
  212   203   156 1
  213   204   156 1
  214   205   156 1
  215   206   155 1
  216   207   155 1
  217   208   155 1
  218   209   154 1
  219   210   154 1
  220   211   154 1
  221   212   141 1
  222   213   146 1
  223   214   145 1
  224   215   142 1
  225   216   142 1
  226   217   174 1
  227   218   173 1
  228   219   171 1
  229   220   170 1
  230   221   169 1
  231   222   140 1
  232   223   167 1
  233   224   166 1
  234   225   165 1
  235   226   163 1
  236   227   161 1
  237   228   139 1
  238   229   139 1
  239   230   153 1
  240   231   152 1
  241   232   150 1
  242   233   149 1
  243   234   148 1
  244   235   162 1
  245   65    153 1
  246   65    174 1
@<TRIPOS>SUBSTRUCTURE
      1 CLA               1 ****               0 ****  **** 
      2 LUT             138 ****               0 ****  **** 
