@<TRIPOS>MOLECULE
Cpptraj generated mol2 file.
  235   246     2     0     0
SMALL
USER_CHARGES


@<TRIPOS>ATOM
      1 CAA        79.1899   58.2154   34.1268 a2         1 CLA     -0.055900
      2 CAB        79.4855   62.4603   42.9588 c8         1 CLA     -0.148500
      3 CAC        72.7514   58.0725   43.0950 a2         1 CLA     -0.012600
      4 CAD        75.0406   55.7824   35.5275 ck         1 CLA      0.398800
      5 NA         78.2908   58.6934   37.6382 ns         1 CLA     -0.225500
      6 CBA        80.3809   58.1947   33.2337 a2         1 CLA     -0.135000
      7 CBB        80.5632   62.3884   43.8126 c0         1 CLA     -0.395200
      8 CBC        73.0261   56.6085   43.4249 a3         1 CLA     -0.037700
      9 CBD        76.5407   56.4102   35.1456 a1         1 CLA     -0.053900
     10 NB         78.1936   60.4164   40.1338 nm         1 CLA     -0.295700
     11 OBD        74.4270   55.0205   34.8012 o2         1 CLA     -0.494600
     12 CGA        81.0091   56.8766   32.8014 c4         1 CLA      0.827000
     13 CGD        77.5441   55.3233   34.8943 c4         1 CLA      0.655300
     14 ND         75.5166   57.8006   38.4237 nm         1 CLA     -0.291600
     15 CED        78.6854   53.5567   36.0415 a3         1 CLA      0.005400
     16 CHA        76.8987   57.2726   36.3322 cs         1 CLA     -0.123800
     17 CHB        80.0734   60.1314   38.5207 aa         1 CLA     -0.291900
     18 CHC        76.9577   60.7915   42.2384 aa         1 CLA     -0.090400
     19 CHD        73.8845   57.6437   40.1217 aa         1 CLA     -0.052000
     20 CMA        81.6808   58.0095   36.9076 a3         1 CLA     -0.230700
     21 CMB        81.5757   62.1406   40.3483 a3         1 CLA     -0.180800
     22 CMC        74.7848   60.2703   44.4177 a3         1 CLA     -0.134000
     23 CMD        72.2883   55.9334   37.7210 a3         1 CLA     -0.141100
     24 C1         82.0521   55.0225   33.8472 a2         1 CLA      0.023000
     25 C1A        78.0901   57.9902   36.5282 ac         1 CLA     -0.015100
     26 C1B        79.4730   60.6263   39.6940 cr         1 CLA      0.054700
     27 C1C        75.9530   59.8689   42.0953 cn         1 CLA     -0.005600
     28 C1D        74.3065   57.3036   38.8151 ap         1 CLA     -0.047300
     29 O1A        80.9124   56.2906   31.7334 o2         1 CLA     -0.610800
     30 O1D        78.2287   55.0718   33.8855 o2         1 CLA     -0.558200
     31 C2         83.0949   54.8913   34.9533 c8         1 CLA     -0.325100
     32 C2A        79.3582   57.8698   35.6429 a1         1 CLA      0.098600
     33 C2B        80.2194   61.5305   40.6266 cb         1 CLA      0.088500
     34 C2C        74.8341   59.6832   42.9869 cb         1 CLA      0.053700
     35 C2D        73.6974   56.5140   37.7869 cb         1 CLA      0.058900
     36 O2A        81.8286   56.4549   33.8434 o1         1 CLA     -0.437200
     37 O2D        77.6246   54.6112   36.0998 o1         1 CLA     -0.357600
     38 C3         84.2156   54.1438   34.8132 c5         1 CLA      0.031200
     39 C3A        80.3599   58.7309   36.4037 a1         1 CLA      0.166800
     40 C3B        79.3117   61.7611   41.7060 cb         1 CLA      0.035000
     41 C3C        73.9945   58.7457   42.4114 cb         1 CLA     -0.089900
     42 C3D        74.7007   56.4260   36.8123 cb         1 CLA     -0.035900
     43 C4         84.2341   52.6171   34.9623 a3         1 CLA     -0.053300
     44 C4A        79.5429   59.2172   37.6104 ac         1 CLA      0.001800
     45 C4B        78.1162   60.9574   41.4496 cn         1 CLA     -0.020900
     46 C4C        74.5446   58.4498   41.1224 cr         1 CLA     -0.044400
     47 C4D        75.7646   57.1982   37.2491 c6         1 CLA     -0.046000
     48 C5         85.6201   54.7200   34.4532 a2         1 CLA     -0.070400
     49 C6         86.1449   55.9173   35.2367 a2         1 CLA      0.043900
     50 C7         86.2644   55.7079   36.7079 a2         1 CLA     -0.150000
     51 C8         86.4377   57.0331   37.5290 a1         1 CLA      0.064200
     52 C9         87.5045   58.0274   36.9712 a3         1 CLA     -0.259300
     53 C10        86.7822   56.6942   39.0285 a2         1 CLA     -0.071900
     54 C11        86.5856   57.9088   39.9663 a2         1 CLA      0.014500
     55 C12        86.8283   57.4691   41.4565 a2         1 CLA     -0.112100
     56 C13        86.9021   58.5958   42.5754 a1         1 CLA      0.089200
     57 C14        88.2467   59.3812   42.3761 a3         1 CLA     -0.239100
     58 C15        86.8278   58.0463   43.9663 a2         1 CLA     -0.102200
     59 C16        86.9388   58.9703   45.1233 a2         1 CLA      0.023900
     60 C17        86.6882   58.2648   46.4274 a2         1 CLA     -0.105700
     61 C18        86.5461   59.1060   47.6366 a1         1 CLA      0.206800
     62 C19        85.9968   60.5674   47.3650 a3         1 CLA     -0.280100
     63 C20        85.7924   58.3820   48.8318 a3         1 CLA     -0.280100
     64 NC         75.7107   59.1461   40.9533 nx         1 CLA     -0.309200
     65 MG         76.8898   59.0680   39.2421 mg         1 CLA      0.895000
     66 HMD3       72.1548   55.0654   38.4271 dc         1 CLA      0.064300
     67 HMD2       71.4889   56.6548   37.9660 dc         1 CLA      0.064300
     68 HMD1       71.9749   55.6674   36.6988 dc         1 CLA      0.064300
     69 HMC3       73.8399   59.8743   44.9439 dc         1 CLA      0.052100
     70 HMC2       75.6464   60.0238   45.0315 dc         1 CLA      0.052100
     71 HMC1       74.6868   61.3550   44.4719 dc         1 CLA      0.052100
     72 HMB3       81.6988   63.0003   40.9943 dc         1 CLA      0.063600
     73 HMB2       82.3682   61.4075   40.5390 dc         1 CLA      0.063600
     74 HMB1       81.7171   62.4249   39.2742 dc         1 CLA      0.063600
     75 HMA3       82.3432   57.7792   36.1171 dc         1 CLA      0.058300
     76 HMA2       82.0605   58.5042   37.7761 dc         1 CLA      0.058300
     77 HMA1       81.2615   57.0740   37.2993 dc         1 CLA      0.058300
     78 HED3       78.4821   52.9671   36.9624 dc         1 CLA      0.079300
     79 HED2       78.4423   52.9708   35.1634 dc         1 CLA      0.079300
     80 HED1       79.6857   54.0133   35.9396 dc         1 CLA      0.079300
     81 HBC3       73.9234   56.4953   44.0033 dc         1 CLA      0.016300
     82 HBC2       72.2756   56.1926   44.0265 dc         1 CLA      0.016300
     83 HBC1       73.2777   56.0522   42.5302 dc         1 CLA      0.016300
     84 HBB2       80.4768   62.7692   44.7952 da         1 CLA      0.183000
     85 HBB1       81.5033   61.9237   43.4913 da         1 CLA      0.183000
     86 HBA2       80.1874   58.7609   32.3265 dc         1 CLA      0.029400
     87 HBA1       81.1476   58.7390   33.8021 dc         1 CLA      0.029400
     88 HAC2       72.5993   58.4739   43.9837 dc         1 CLA      0.029300
     89 HAC1       71.8984   58.1744   42.4386 dc         1 CLA      0.029300
     90 HAA2       78.4023   57.6468   33.6769 dc         1 CLA      0.028700
     91 HAA1       78.9006   59.2733   34.1151 dc         1 CLA      0.028700
     92 H203       85.9315   57.3216   48.8445 dc         1 CLA      0.065600
     93 H202       86.0041   58.7682   49.8017 dc         1 CLA      0.065600
     94 H201       84.7630   58.5507   48.6533 dc         1 CLA      0.065600
     95 H193       85.7290   61.1105   48.3008 dc         1 CLA      0.065600
     96 H192       86.7200   61.0752   46.7586 dc         1 CLA      0.065600
     97 H191       85.0777   60.5011   46.7955 dc         1 CLA      0.065600
     98 H172       85.6740   57.8154   46.2469 dc         1 CLA      0.027600
     99 H171       87.5085   57.5822   46.6138 dc         1 CLA      0.027600
    100 H162       87.9156   59.4832   45.0886 dc         1 CLA      0.002900
    101 H161       86.0902   59.6729   44.9889 dc         1 CLA      0.002900
    102 H152       85.8842   57.4715   44.0688 dc         1 CLA      0.029100
    103 H151       87.6366   57.3511   44.0803 dc         1 CLA      0.029100
    104 H143       89.0853   58.9051   42.8113 dc         1 CLA      0.063600
    105 H142       88.5515   59.4793   41.2923 dc         1 CLA      0.063600
    106 H141       88.0814   60.3738   42.8012 dc         1 CLA      0.063600
    107 H122       86.1004   56.7857   41.7932 dc         1 CLA      0.032500
    108 H121       87.7754   56.8300   41.4833 dc         1 CLA      0.032500
    109 H112       87.2953   58.7142   39.6456 dc         1 CLA      0.006600
    110 H111       85.5538   58.1378   39.7864 dc         1 CLA      0.006600
    111 H102       86.0523   55.9666   39.4104 dc         1 CLA      0.024100
    112 H101       87.7812   56.3220   39.1510 dc         1 CLA      0.024100
    113 HHD        72.9029   57.2439   40.3581 da         1 CLA      0.174300
    114 HHC        77.0150   61.2147   43.2310 da         1 CLA      0.136800
    115 HHB        81.1371   60.3662   38.3277 da         1 CLA      0.138300
    116 HBD        76.2918   57.0319   34.2404 dc         1 CLA      0.107700
    117 HAB        78.6659   62.9353   43.4210 da         1 CLA      0.155200
    118 H93        87.1045   58.3459   35.9903 dc         1 CLA      0.069500
    119 H92        87.5572   59.0034   37.5157 dc         1 CLA      0.069500
    120 H91        88.4518   57.5546   36.7884 dc         1 CLA      0.069500
    121 H8         85.4659   57.3914   37.4922 dc         1 CLA      0.029300
    122 H72        85.4364   55.2157   37.0879 dc         1 CLA      0.044400
    123 H71        87.1628   55.1232   36.8374 dc         1 CLA      0.044400
    124 H62        87.1378   56.1736   34.7871 dc         1 CLA      0.015600
    125 H61        85.6342   56.8794   35.0442 dc         1 CLA      0.015600
    126 H52        86.3876   53.9734   34.3589 dc         1 CLA      0.033200
    127 H51        85.5690   54.9504   33.4178 dc         1 CLA      0.033200
    128 H43        85.2066   52.2497   35.2658 dc         1 CLA      0.037000
    129 H42        83.5827   52.2385   35.7956 dc         1 CLA      0.037000
    130 H41        83.7977   52.1116   34.0280 dc         1 CLA      0.037000
    131 H3A        80.6810   59.4824   35.6867 dc         1 CLA      0.041100
    132 H2A        79.8716   56.9432   35.6602 dc         1 CLA      0.083100
    133 H2         82.9213   55.2798   35.9107 da         1 CLA      0.180900
    134 H18        87.6035   59.1780   48.0746 dc         1 CLA     -0.003900
    135 H13        86.0834   59.2963   42.4002 dc         1 CLA      0.019700
    136 H12        81.1489   54.4006   34.0168 dc         1 CLA      0.120400
    137 H11        82.6001   54.7048   32.9828 dc         1 CLA      0.120400
    138 C1         69.3085   61.3006   50.0550 Z1         2 LUT      0.509236
    139 C2         68.7160   61.9102   51.3272 Z2         2 LUT     -0.434695
    140 C3         67.2126   62.3135   51.2601 Z3         2 LUT      0.437453
    141 O3         66.8580   63.0497   52.4385 S1         2 LUT     -0.547129
    142 C4         67.0647   63.2588   50.1261 Z4         2 LUT     -0.468603
    143 C5         67.7007   62.8176   48.8376 Z5         2 LUT      0.279246
    144 C6         68.6603   61.8897   48.7798 Z6         2 LUT     -0.305473
    145 C7         69.3379   61.6980   47.4861 Z7         2 LUT      0.069402
    146 C8         70.4459   62.3503   46.9180 Z8         2 LUT     -0.191631
    147 C9         70.8967   62.1744   45.4774 Z9         2 LUT      0.196698
    148 C10        71.8339   62.9848   44.9125 Y1         2 LUT     -0.208611
    149 C11        72.5540   62.8502   43.6510 Y2         2 LUT      0.030784
    150 C12        73.6579   63.5954   43.3512 Y3         2 LUT     -0.220316
    151 C13        74.6731   63.5432   42.3296 Y4         2 LUT      0.215937
    152 C14        75.7604   64.3756   42.3552 Y5         2 LUT     -0.185793
    153 C15        76.8909   64.2639   41.4505 Y6         2 LUT     -0.057835
    154 C16        68.7617   59.8446   50.1152 Y7         2 LUT     -0.405615
    155 C17        70.8418   61.1035   49.8993 Y7         2 LUT     -0.405615
    156 C18        67.1786   63.6123   47.6279 Y9         2 LUT     -0.369639
    157 C19        70.4769   60.8845   44.7488 W1         2 LUT     -0.333362
    158 C20        74.1963   62.8203   41.0461 W2         2 LUT     -0.323439
    159 C21        87.7506   65.8020   35.1004 Z1         2 LUT      0.406104
    160 C22        88.3565   65.0324   33.9252 Z2         2 LUT     -0.404965
    161 C23        88.4843   65.8808   32.7395 Z3         2 LUT      0.391255
    162 O23        88.8869   65.0395   31.6639 S1         2 LUT     -0.528210
    163 C24        87.2119   66.7117   32.4471 W6         2 LUT     -0.258361
    164 C25        86.1877   66.8193   33.2863 Z5         2 LUT      0.133546
    165 C26        86.2665   66.1293   34.6673 W8         2 LUT     -0.147008
    166 C27        85.6536   66.9588   35.7037 Z7         2 LUT      0.023843
    167 C28        84.5676   66.5969   36.4375 Z8         2 LUT     -0.216987
    168 C29        84.2335   66.9298   37.7937 Z9         2 LUT      0.206524
    169 C30        83.0949   66.2728   38.3137 Y1         2 LUT     -0.215556
    170 C31        82.3849   66.4529   39.4953 Y2         2 LUT      0.025142
    171 C32        81.1772   65.7547   39.7222 Y3         2 LUT     -0.212209
    172 C33        80.2302   65.8503   40.8131 Y4         2 LUT      0.240937
    173 C34        79.0281   65.1652   40.6028 Y5         2 LUT     -0.218862
    174 C35        77.9759   65.1146   41.5489 Y6         2 LUT     -0.023547
    175 C36        88.7394   66.9170   35.5185 Y7         2 LUT     -0.393485
    176 C37        87.8118   64.8176   36.2952 Y7         2 LUT     -0.393485
    177 C38        84.8965   67.6008   32.9882 Y9         2 LUT     -0.387526
    178 C39        84.9651   67.9795   38.6184 W1         2 LUT     -0.322618
    179 C40        80.4876   66.7099   42.0198 W2         2 LUT     -0.358472
    180 H403       81.4950   67.1692   41.9989 R7         2 LUT      0.097720
    181 H402       79.7253   67.5049   42.1591 R7         2 LUT      0.097720
    182 H401       80.4626   66.1000   42.9305 R7         2 LUT      0.097720
    183 H393       85.5972   68.7109   38.1250 R4         2 LUT      0.082505
    184 H392       84.2613   68.6543   39.0225 R4         2 LUT      0.082505
    185 H391       85.3588   67.6306   39.5133 R4         2 LUT      0.082505
    186 H383       84.0709   67.0528   33.4085 R1         2 LUT      0.104030
    187 H382       85.0191   68.6372   33.3261 R1         2 LUT      0.104030
    188 H381       84.8075   67.5177   31.9426 R1         2 LUT      0.104030
    189 H373       87.3964   63.8206   35.8828 T4         2 LUT      0.089537
    190 H372       88.8068   64.5450   36.6877 T4         2 LUT      0.089537
    191 H371       87.2448   65.3117   37.1599 T4         2 LUT      0.089537
    192 H363       89.7102   66.4431   35.4394 T4         2 LUT      0.089537
    193 H362       88.7405   67.7057   34.7891 T4         2 LUT      0.089537
    194 H361       88.6296   67.2743   36.5891 T4         2 LUT      0.089537
    195 H222       89.3060   64.4266   34.2575 U2         2 LUT      0.127376
    196 H221       87.6782   64.2983   33.5212 U2         2 LUT      0.127376
    197 H203       75.0596   62.4154   40.4411 R7         2 LUT      0.087068
    198 H202       73.5475   61.9737   41.2329 R7         2 LUT      0.087068
    199 H201       73.7610   63.5174   40.3445 R7         2 LUT      0.087068
    200 H193       69.3889   60.7516   44.7938 R4         2 LUT      0.089716
    201 H192       70.7333   60.8461   43.6962 R4         2 LUT      0.089716
    202 H191       71.0232   60.0830   45.2363 R4         2 LUT      0.089716
    203 H183       66.2566   64.1412   47.8808 R1         2 LUT      0.094572
    204 H182       67.9536   64.3753   47.4424 R1         2 LUT      0.094572
    205 H181       66.9960   62.8308   46.8449 R1         2 LUT      0.094572
    206 H173       71.3067   62.0706   49.9035 T4         2 LUT      0.093752
    207 H172       71.3540   60.6353   50.7695 T4         2 LUT      0.093752
    208 H171       71.1422   60.5545   48.9982 T4         2 LUT      0.093752
    209 H163       69.1105   59.3665   51.0598 T4         2 LUT      0.093752
    210 H162       67.6734   59.7038   50.1118 T4         2 LUT      0.093752
    211 H161       69.0905   59.2758   49.2576 T4         2 LUT      0.093752
    212 HO3        66.5063   62.4139   53.0827 Q1         2 LUT      0.300121
    213 H8         70.7928   63.1891   47.5033 U7         2 LUT      0.080784
    214 H7         68.7738   60.9762   46.9672 U6         2 LUT      0.042190
    215 H42        66.0369   63.4562   49.9353 U5         2 LUT      0.145166
    216 H41        67.5381   64.2307   50.3189 U5         2 LUT      0.145166
    217 H35        78.0657   65.7287   42.4452 T3         2 LUT      0.077919
    218 H34        78.8326   64.5480   39.6840 T2         2 LUT      0.073626
    219 H32        80.7761   65.0903   38.9091 T1         2 LUT      0.092510
    220 H31        82.7573   67.2113   40.2271 U9         2 LUT      0.070048
    221 H30        82.5884   65.5199   37.6970 U8         2 LUT      0.085442
    222 H3         66.6254   61.3760   51.0954 U3         2 LUT     -0.031596
    223 H28        83.9203   65.8474   35.8887 U7         2 LUT      0.084728
    224 H27        86.2616   67.7102   36.0926 U6         2 LUT      0.087291
    225 H26        85.7342   65.2417   34.5420 Q6         2 LUT      0.075325
    226 H24        87.1644   67.2651   31.5566 Q5         2 LUT      0.094482
    227 H23        89.2658   66.6318   32.7122 U3         2 LUT     -0.024869
    228 H22        68.7843   61.3001   52.2236 U2         2 LUT      0.127376
    229 H21        69.3392   62.7283   51.6477 U2         2 LUT      0.127376
    230 H15        76.8729   63.5792   40.6344 T3         2 LUT      0.093200
    231 H14        75.8848   65.1122   43.1492 T2         2 LUT      0.068865
    232 H12        73.8625   64.3115   44.1676 T1         2 LUT      0.095507
    233 H11        72.2853   62.0800   42.9778 U9         2 LUT      0.068930
    234 H10        72.2777   63.6707   45.6450 U8         2 LUT      0.083911
    235 H1         89.0081   65.4284   30.7925 Q1         2 LUT      0.297311
@<TRIPOS>BOND
    1     6     1 1
    2     7     2 1
    3     8     3 1
    4     9     4 1
    5    11     4 1
    6    12     6 1
    7    13     9 1
    8    16     9 1
    9    25     5 1
   10    25    16 1
   11    26    10 1
   12    26    17 1
   13    27    18 1
   14    28    14 1
   15    28    19 1
   16    29    12 1
   17    30    13 1
   18    31    24 1
   19    32     1 1
   20    32    25 1
   21    33    21 1
   22    33    26 1
   23    34    22 1
   24    34    27 1
   25    35    23 1
   26    35    28 1
   27    36    12 1
   28    36    24 1
   29    37    13 1
   30    37    15 1
   31    38    31 1
   32    39    20 1
   33    39    32 1
   34    40     2 1
   35    40    33 1
   36    41     3 1
   37    41    34 1
   38    42     4 1
   39    42    35 1
   40    43    38 1
   41    44     5 1
   42    44    17 1
   43    44    39 1
   44    45    10 1
   45    45    18 1
   46    45    40 1
   47    46    19 1
   48    46    41 1
   49    47    14 1
   50    47    16 1
   51    47    42 1
   52    48    38 1
   53    49    48 1
   54    50    49 1
   55    51    50 1
   56    52    51 1
   57    53    51 1
   58    54    53 1
   59    55    54 1
   60    56    55 1
   61    57    56 1
   62    58    56 1
   63    59    58 1
   64    60    59 1
   65    61    60 1
   66    62    61 1
   67    63    61 1
   68    64    27 1
   69    64    46 1
   70    65     5 1
   71    65    10 1
   72    65    64 1
   73    65    14 1
   74    66    23 1
   75    67    23 1
   76    68    23 1
   77    69    22 1
   78    70    22 1
   79    71    22 1
   80    72    21 1
   81    73    21 1
   82    74    21 1
   83    75    20 1
   84    76    20 1
   85    77    20 1
   86    78    15 1
   87    79    15 1
   88    80    15 1
   89    81     8 1
   90    82     8 1
   91    83     8 1
   92    84     7 1
   93    85     7 1
   94    86     6 1
   95    87     6 1
   96    88     3 1
   97    89     3 1
   98    90     1 1
   99    91     1 1
  100    92    63 1
  101    93    63 1
  102    94    63 1
  103    95    62 1
  104    96    62 1
  105    97    62 1
  106    98    60 1
  107    99    60 1
  108   100    59 1
  109   101    59 1
  110   102    58 1
  111   103    58 1
  112   104    57 1
  113   105    57 1
  114   106    57 1
  115   107    55 1
  116   108    55 1
  117   109    54 1
  118   110    54 1
  119   111    53 1
  120   112    53 1
  121   113    19 1
  122   114    18 1
  123   115    17 1
  124   116     9 1
  125   117     2 1
  126   118    52 1
  127   119    52 1
  128   120    52 1
  129   121    51 1
  130   122    50 1
  131   123    50 1
  132   124    49 1
  133   125    49 1
  134   126    48 1
  135   127    48 1
  136   128    43 1
  137   129    43 1
  138   130    43 1
  139   131    39 1
  140   132    32 1
  141   133    31 1
  142   134    61 1
  143   135    56 1
  144   136    24 1
  145   137    24 1
  146   139   138 1
  147   140   139 1
  148   141   140 1
  149   142   140 1
  150   143   142 1
  151   144   138 1
  152   144   143 1
  153   145   144 1
  154   146   145 1
  155   147   146 1
  156   148   147 1
  157   149   148 1
  158   150   149 1
  159   151   150 1
  160   152   151 1
  161   153   152 1
  162   154   138 1
  163   155   138 1
  164   156   143 1
  165   157   147 1
  166   158   151 1
  167   160   159 1
  168   161   160 1
  169   162   161 1
  170   163   161 1
  171   164   163 1
  172   165   159 1
  173   165   164 1
  174   166   165 1
  175   167   166 1
  176   168   167 1
  177   169   168 1
  178   170   169 1
  179   171   170 1
  180   172   171 1
  181   173   172 1
  182   174   153 1
  183   174   173 1
  184   175   159 1
  185   176   159 1
  186   177   164 1
  187   178   168 1
  188   179   172 1
  189   180   179 1
  190   181   179 1
  191   182   179 1
  192   183   178 1
  193   184   178 1
  194   185   178 1
  195   186   177 1
  196   187   177 1
  197   188   177 1
  198   189   176 1
  199   190   176 1
  200   191   176 1
  201   192   175 1
  202   193   175 1
  203   194   175 1
  204   195   160 1
  205   196   160 1
  206   197   158 1
  207   198   158 1
  208   199   158 1
  209   200   157 1
  210   201   157 1
  211   202   157 1
  212   203   156 1
  213   204   156 1
  214   205   156 1
  215   206   155 1
  216   207   155 1
  217   208   155 1
  218   209   154 1
  219   210   154 1
  220   211   154 1
  221   212   141 1
  222   213   146 1
  223   214   145 1
  224   215   142 1
  225   216   142 1
  226   217   174 1
  227   218   173 1
  228   219   171 1
  229   220   170 1
  230   221   169 1
  231   222   140 1
  232   223   167 1
  233   224   166 1
  234   225   165 1
  235   226   163 1
  236   227   161 1
  237   228   139 1
  238   229   139 1
  239   230   153 1
  240   231   152 1
  241   232   150 1
  242   233   149 1
  243   234   148 1
  244   235   162 1
  245   65    153 1
  246   65    174 1
@<TRIPOS>SUBSTRUCTURE
      1 CLA               1 ****               0 ****  **** 
      2 LUT             138 ****               0 ****  **** 
