@<TRIPOS>MOLECULE
Cpptraj generated mol2 file.
  235   246     2     0     0
SMALL
USER_CHARGES


@<TRIPOS>ATOM
      1 CAA        79.5877   59.3483   34.1932 a2         1 CLA     -0.055900
      2 CAB        79.2423   62.6913   43.2222 c8         1 CLA     -0.148500
      3 CAC        72.3455   58.7978   42.3178 a2         1 CLA     -0.012600
      4 CAD        75.4352   56.5690   35.1143 ck         1 CLA      0.398800
      5 NA         78.4750   59.4565   37.5184 ns         1 CLA     -0.225500
      6 CBA        80.9025   59.3664   33.2731 a2         1 CLA     -0.135000
      7 CBB        80.3532   62.7415   44.0008 c0         1 CLA     -0.395200
      8 CBC        72.5596   57.2981   42.4781 a3         1 CLA     -0.037700
      9 CBD        76.9130   57.0308   34.8834 a1         1 CLA     -0.053900
     10 NB         78.2278   61.0105   40.0568 nm         1 CLA     -0.295700
     11 OBD        74.7955   55.7807   34.4015 o2         1 CLA     -0.494600
     12 CGA        81.4011   57.9633   32.8415 c4         1 CLA      0.827000
     13 CGD        77.8846   55.9350   34.3954 c4         1 CLA      0.655300
     14 ND         75.6493   58.5913   37.9859 nm         1 CLA     -0.291600
     15 CED        78.5643   53.6628   34.5897 a3         1 CLA      0.005400
     16 CHA        77.2271   57.9452   36.0753 cs         1 CLA     -0.123800
     17 CHB        80.2147   60.8137   38.6715 aa         1 CLA     -0.291900
     18 CHC        76.7659   61.2010   42.0862 aa         1 CLA     -0.090400
     19 CHD        73.7238   58.5030   39.4433 aa         1 CLA     -0.052000
     20 CMA        82.0101   58.7362   36.8894 a3         1 CLA     -0.230700
     21 CMB        81.6004   62.3410   40.9104 a3         1 CLA     -0.180800
     22 CMC        74.3616   60.8809   44.0548 a3         1 CLA     -0.134000
     23 CMD        72.6038   56.5015   37.1659 a3         1 CLA     -0.141100
     24 C1         82.2889   55.9554   33.7931 a2         1 CLA      0.023000
     25 C1A        78.3813   58.6485   36.4347 ac         1 CLA     -0.015100
     26 C1B        79.5328   61.2657   39.8187 cr         1 CLA      0.054700
     27 C1C        75.5907   60.5803   41.7637 cn         1 CLA     -0.005600
     28 C1D        74.3456   58.1853   38.2628 ap         1 CLA     -0.047300
     29 O1A        81.4043   57.4471   31.7155 o2         1 CLA     -0.610800
     30 O1D        78.8078   56.1343   33.6055 o2         1 CLA     -0.558200
     31 C2         82.7315   55.4891   35.2277 c8         1 CLA     -0.325100
     32 C2A        79.6838   58.7489   35.6343 a1         1 CLA      0.098600
     33 C2B        80.1709   61.8711   40.9645 cb         1 CLA      0.088500
     34 C2C        74.4840   60.3497   42.6867 cb         1 CLA      0.053700
     35 C2D        73.8515   57.2994   37.2100 cb         1 CLA      0.058900
     36 O2A        81.9194   57.3660   33.9418 o1         1 CLA     -0.437200
     37 O2D        77.6486   54.7479   34.9389 o1         1 CLA     -0.357600
     38 C3         83.5008   54.4424   35.4713 c5         1 CLA      0.031200
     39 C3A        80.6616   59.4952   36.4776 a1         1 CLA      0.166800
     40 C3B        79.1687   61.9743   41.9694 cb         1 CLA      0.035000
     41 C3C        73.5925   59.4662   41.9020 cb         1 CLA     -0.089900
     42 C3D        75.0068   57.2019   36.3517 cb         1 CLA     -0.035900
     43 C4         82.9580   53.0593   35.6829 a3         1 CLA     -0.053300
     44 C4A        79.7179   59.9839   37.6282 ac         1 CLA      0.001800
     45 C4B        77.9641   61.3814   41.4093 cn         1 CLA     -0.020900
     46 C4C        74.1759   59.3259   40.5310 cr         1 CLA     -0.044400
     47 C4D        76.0075   58.0092   36.7799 c6         1 CLA     -0.046000
     48 C5         84.9723   54.5327   35.2129 a2         1 CLA     -0.070400
     49 C6         85.7440   55.6325   35.9122 a2         1 CLA      0.043900
     50 C7         85.8988   55.5799   37.4412 a2         1 CLA     -0.150000
     51 C8         86.4666   56.8215   38.2154 a1         1 CLA      0.064200
     52 C9         88.0121   56.9306   38.0658 a3         1 CLA     -0.259300
     53 C10        86.2406   56.8487   39.7673 a2         1 CLA     -0.071900
     54 C11        86.5157   58.1950   40.4415 a2         1 CLA      0.014500
     55 C12        86.2542   58.1116   41.9221 a2         1 CLA     -0.112100
     56 C13        86.1649   59.5271   42.6165 a1         1 CLA      0.089200
     57 C14        87.4354   60.4583   42.4074 a3         1 CLA     -0.239100
     58 C15        85.8544   59.3594   44.0955 a2         1 CLA     -0.102200
     59 C16        85.4447   60.5670   44.8719 a2         1 CLA      0.023900
     60 C17        84.7509   60.2806   46.1953 a2         1 CLA     -0.105700
     61 C18        84.2850   61.4367   47.0572 a1         1 CLA      0.206800
     62 C19        82.8588   61.9153   46.5673 a3         1 CLA     -0.280100
     63 C20        84.2277   61.0332   48.6154 a3         1 CLA     -0.280100
     64 NC         75.3391   60.0311   40.5219 nx         1 CLA     -0.309200
     65 MG         76.9318   59.8578   38.9103 mg         1 CLA      0.895000
     66 HMD3       72.2673   56.2261   38.1820 dc         1 CLA      0.064300
     67 HMD2       71.9776   57.2158   36.7094 dc         1 CLA      0.064300
     68 HMD1       72.7800   55.6017   36.5841 dc         1 CLA      0.064300
     69 HMC3       73.3130   60.9710   44.3422 dc         1 CLA      0.052100
     70 HMC2       74.8071   60.1041   44.7181 dc         1 CLA      0.052100
     71 HMC1       74.9565   61.7658   44.0873 dc         1 CLA      0.052100
     72 HMB3       82.4026   61.6857   41.3857 dc         1 CLA      0.063600
     73 HMB2       81.8987   62.3916   39.8326 dc         1 CLA      0.063600
     74 HMB1       81.6458   63.4029   41.2414 dc         1 CLA      0.063600
     75 HMA3       81.7044   57.7375   37.1825 dc         1 CLA      0.058300
     76 HMA2       82.7977   58.7981   36.2161 dc         1 CLA      0.058300
     77 HMA1       82.3333   59.2606   37.7980 dc         1 CLA      0.058300
     78 HED3       79.5426   53.9075   35.0161 dc         1 CLA      0.079300
     79 HED2       78.2102   52.7023   35.0383 dc         1 CLA      0.079300
     80 HED1       78.6734   53.4969   33.5396 dc         1 CLA      0.079300
     81 HBC3       71.6483   56.6316   42.5890 dc         1 CLA      0.016300
     82 HBC2       72.9981   56.9489   41.5928 dc         1 CLA      0.016300
     83 HBC1       73.2858   57.0646   43.3166 dc         1 CLA      0.016300
     84 HBB2       80.4228   63.4259   44.8579 da         1 CLA      0.183000
     85 HBB1       81.2708   62.1386   43.7913 da         1 CLA      0.183000
     86 HBA2       80.6055   60.0956   32.4707 dc         1 CLA      0.029400
     87 HBA1       81.6989   59.8852   33.7747 dc         1 CLA      0.029400
     88 HAC2       71.9953   59.2176   43.2493 dc         1 CLA      0.029300
     89 HAC1       71.5952   58.9147   41.5449 dc         1 CLA      0.029300
     90 HAA2       78.6915   58.9343   33.6991 dc         1 CLA      0.028700
     91 HAA1       79.2992   60.3827   34.3979 dc         1 CLA      0.028700
     92 H203       83.5573   60.2432   48.8831 dc         1 CLA      0.065600
     93 H202       85.2344   60.8512   49.0475 dc         1 CLA      0.065600
     94 H201       83.8824   61.8996   49.1470 dc         1 CLA      0.065600
     95 H193       82.9507   62.0224   45.5126 dc         1 CLA      0.065600
     96 H192       82.0910   61.1904   46.7344 dc         1 CLA      0.065600
     97 H191       82.6707   62.8402   47.0388 dc         1 CLA      0.065600
     98 H172       83.9200   59.5774   46.0816 dc         1 CLA      0.027600
     99 H171       85.6425   59.7137   46.7053 dc         1 CLA      0.027600
    100 H162       86.3384   61.1954   45.1746 dc         1 CLA      0.002900
    101 H161       84.7133   61.1336   44.2527 dc         1 CLA      0.002900
    102 H152       84.9905   58.7325   44.0537 dc         1 CLA      0.029100
    103 H151       86.5784   58.6811   44.5577 dc         1 CLA      0.029100
    104 H143       87.3444   61.4174   42.8644 dc         1 CLA      0.063600
    105 H142       88.3196   59.9830   42.9204 dc         1 CLA      0.063600
    106 H141       87.7290   60.5258   41.3443 dc         1 CLA      0.063600
    107 H122       85.3212   57.5432   42.0968 dc         1 CLA      0.032500
    108 H121       87.0789   57.4768   42.2959 dc         1 CLA      0.032500
    109 H112       87.5775   58.3842   40.3600 dc         1 CLA      0.006600
    110 H111       85.9511   58.9732   39.9385 dc         1 CLA      0.006600
    111 H102       85.1587   56.5120   39.8226 dc         1 CLA      0.024100
    112 H101       86.8999   56.0775   40.2293 dc         1 CLA      0.024100
    113 HHD        72.7975   57.9635   39.7184 da         1 CLA      0.174300
    114 HHC        76.8951   61.5333   43.1243 da         1 CLA      0.136800
    115 HHB        81.2802   61.0739   38.6038 da         1 CLA      0.138300
    116 HBD        76.8833   57.8185   34.0823 dc         1 CLA      0.107700
    117 HAB        78.4312   63.3534   43.5680 da         1 CLA      0.155200
    118 H93        88.6582   56.2455   38.5570 dc         1 CLA      0.069500
    119 H92        88.3150   56.7634   37.0328 dc         1 CLA      0.069500
    120 H91        88.4280   57.9221   38.2315 dc         1 CLA      0.069500
    121 H8         86.0947   57.7768   37.8300 dc         1 CLA      0.029300
    122 H72        84.9241   55.3012   37.8178 dc         1 CLA      0.044400
    123 H71        86.6515   54.7628   37.6237 dc         1 CLA      0.044400
    124 H62        86.6909   55.5577   35.3290 dc         1 CLA      0.015600
    125 H61        85.3262   56.6142   35.6173 dc         1 CLA      0.015600
    126 H52        85.6008   53.7454   35.5281 dc         1 CLA      0.033200
    127 H51        85.1656   54.5518   34.1378 dc         1 CLA      0.033200
    128 H43        82.9383   52.6480   36.6549 dc         1 CLA      0.037000
    129 H42        81.9244   52.9906   35.3997 dc         1 CLA      0.037000
    130 H41        83.5753   52.5234   34.9632 dc         1 CLA      0.037000
    131 H3A        80.9991   60.4311   35.9976 dc         1 CLA      0.041100
    132 H2A        79.9912   57.6992   35.5406 dc         1 CLA      0.083100
    133 H2         82.4192   56.0504   36.1299 da         1 CLA      0.180900
    134 H18        85.0299   62.1891   46.9181 dc         1 CLA     -0.003900
    135 H13        85.2882   60.0416   42.2002 dc         1 CLA      0.019700
    136 H12        81.4229   55.3018   33.6322 dc         1 CLA      0.120400
    137 H11        83.1026   55.8164   33.0222 dc         1 CLA      0.120400
    138 C1         68.4705   61.6977   49.9597 Z1         2 LUT      0.509236
    139 C2         67.0301   61.6731   50.4182 Z2         2 LUT     -0.434695
    140 C3         66.3042   62.9731   50.7707 Z3         2 LUT      0.437453
    141 O3         66.4547   63.4979   52.1274 S1         2 LUT     -0.547129
    142 C4         66.7543   64.0619   49.8454 Z4         2 LUT     -0.468603
    143 C5         67.6603   63.7234   48.6831 Z5         2 LUT      0.279246
    144 C6         68.5552   62.6892   48.7408 Z6         2 LUT     -0.305473
    145 C7         69.0302   62.0527   47.4433 Z7         2 LUT      0.069402
    146 C8         69.9073   62.5929   46.5469 Z8         2 LUT     -0.191631
    147 C9         70.4194   62.3094   45.2024 Z9         2 LUT      0.196698
    148 C10        71.4219   63.0991   44.6825 Y1         2 LUT     -0.208611
    149 C11        72.0934   63.0624   43.4041 Y2         2 LUT      0.030784
    150 C12        73.2313   63.7705   43.0931 Y3         2 LUT     -0.220316
    151 C13        74.2537   63.7013   42.1243 Y4         2 LUT      0.215937
    152 C14        75.3368   64.5345   42.2067 Y5         2 LUT     -0.185793
    153 C15        76.4298   64.6428   41.2861 Y6         2 LUT     -0.057835
    154 C16        68.9459   60.2630   49.7807 Y7         2 LUT     -0.405615
    155 C17        69.1061   62.2106   51.2310 Y7         2 LUT     -0.405615
    156 C18        67.5191   64.6174   47.5131 Y9         2 LUT     -0.369639
    157 C19        69.6373   61.2661   44.4403 W1         2 LUT     -0.333362
    158 C20        73.7642   63.0916   40.8125 W2         2 LUT     -0.323439
    159 C21        87.6310   66.6301   35.3369 Z1         2 LUT      0.406104
    160 C22        88.1814   65.9768   33.9928 Z2         2 LUT     -0.404965
    161 C23        88.5653   66.8622   32.8914 Z3         2 LUT      0.391255
    162 O23        88.9078   65.9030   31.8170 S1         2 LUT     -0.528210
    163 C24        87.5273   67.8291   32.6615 W6         2 LUT     -0.258361
    164 C25        86.4412   68.0506   33.4332 Z5         2 LUT      0.133546
    165 C26        86.2906   67.3035   34.8138 W8         2 LUT     -0.147008
    166 C27        85.4858   67.9511   35.8250 Z7         2 LUT      0.023843
    167 C28        84.4270   67.2851   36.3481 Z8         2 LUT     -0.216987
    168 C29        83.7529   67.5947   37.6185 Z9         2 LUT      0.206524
    169 C30        82.6431   66.7675   37.9358 Y1         2 LUT     -0.215556
    170 C31        81.8226   66.9206   39.0927 Y2         2 LUT      0.025142
    171 C32        80.7031   66.1178   39.3263 Y3         2 LUT     -0.212209
    172 C33        79.8116   66.1512   40.5033 Y4         2 LUT      0.240937
    173 C34        78.6192   65.4177   40.5001 Y5         2 LUT     -0.218862
    174 C35        77.5682   65.3307   41.4450 Y6         2 LUT     -0.023547
    175 C36        88.7583   67.5452   35.8186 Y7         2 LUT     -0.393485
    176 C37        87.4012   65.6020   36.4870 Y7         2 LUT     -0.393485
    177 C38        85.3883   69.0038   32.8974 Y9         2 LUT     -0.387526
    178 C39        84.3026   68.7092   38.4109 W1         2 LUT     -0.322618
    179 C40        80.1822   66.9677   41.6940 W2         2 LUT     -0.358472
    180 H403       80.3482   68.0365   41.4055 R7         2 LUT      0.097720
    181 H402       79.4072   66.8880   42.4450 R7         2 LUT      0.097720
    182 H401       81.1211   66.5681   42.1100 R7         2 LUT      0.097720
    183 H393       84.5442   69.6397   37.8651 R4         2 LUT      0.082505
    184 H392       83.5680   68.9713   39.1202 R4         2 LUT      0.082505
    185 H391       85.1896   68.2851   38.8315 R4         2 LUT      0.082505
    186 H383       85.8034   69.9506   32.4589 R1         2 LUT      0.104030
    187 H382       84.8402   68.4466   32.1747 R1         2 LUT      0.104030
    188 H381       84.7268   69.4033   33.6642 R1         2 LUT      0.104030
    189 H373       86.5133   64.9789   36.2356 T4         2 LUT      0.089537
    190 H372       88.3564   65.0425   36.7555 T4         2 LUT      0.089537
    191 H371       87.0755   66.1116   37.3588 T4         2 LUT      0.089537
    192 H363       89.6291   66.9924   36.1364 T4         2 LUT      0.089537
    193 H362       89.0358   68.3287   35.1274 T4         2 LUT      0.089537
    194 H361       88.4523   68.1388   36.7487 T4         2 LUT      0.089537
    195 H222       89.0675   65.2888   34.1871 U2         2 LUT      0.127376
    196 H221       87.3935   65.3116   33.6230 U2         2 LUT      0.127376
    197 H203       73.0216   62.2898   40.8563 R7         2 LUT      0.087068
    198 H202       73.3174   63.8270   40.1539 R7         2 LUT      0.087068
    199 H201       74.6078   62.5677   40.2987 R7         2 LUT      0.087068
    200 H193       69.7121   61.3927   43.3756 R4         2 LUT      0.089716
    201 H192       69.7857   60.2475   44.6526 R4         2 LUT      0.089716
    202 H191       68.5408   61.4479   44.6826 R4         2 LUT      0.089716
    203 H183       68.5866   64.8937   47.2311 R1         2 LUT      0.094572
    204 H182       66.9554   64.1698   46.7299 R1         2 LUT      0.094572
    205 H181       66.9307   65.4652   47.8405 R1         2 LUT      0.094572
    206 H173       68.8470   63.2731   51.3096 T4         2 LUT      0.093752
    207 H172       68.8275   61.5869   52.1127 T4         2 LUT      0.093752
    208 H171       70.1874   62.1165   51.1268 T4         2 LUT      0.093752
    209 H163       68.3552   59.6503   49.0074 T4         2 LUT      0.093752
    210 H162       69.9443   60.3036   49.3672 T4         2 LUT      0.093752
    211 H161       68.9261   59.7980   50.7143 T4         2 LUT      0.093752
    212 HO3        66.3354   62.7609   52.7368 Q1         2 LUT      0.300121
    213 H8         70.2535   63.5228   46.8813 U7         2 LUT      0.080784
    214 H7         68.5710   61.0861   47.2263 U6         2 LUT      0.042190
    215 H42        65.8314   64.5407   49.4603 U5         2 LUT      0.145166
    216 H41        67.2017   64.9037   50.5053 U5         2 LUT      0.145166
    217 H35        77.6764   65.9151   42.3558 T3         2 LUT      0.077919
    218 H34        78.4684   64.8685   39.5954 T2         2 LUT      0.073626
    219 H32        80.3942   65.4394   38.5908 T1         2 LUT      0.092510
    220 H31        82.1069   67.6331   39.8586 U9         2 LUT      0.070048
    221 H30        82.2880   66.0035   37.2093 U8         2 LUT      0.085442
    222 H3         65.1527   62.9872   50.5990 U3         2 LUT     -0.031596
    223 H28        84.0287   66.3879   35.8937 U7         2 LUT      0.084728
    224 H27        85.8748   68.8401   36.2957 U6         2 LUT      0.087291
    225 H26        85.7845   66.4036   34.4116 Q6         2 LUT      0.075325
    226 H24        87.4961   68.2827   31.6483 Q5         2 LUT      0.094482
    227 H23        89.4114   67.5062   33.2104 U3         2 LUT     -0.024869
    228 H22        66.4154   61.4640   49.6005 U2         2 LUT      0.127376
    229 H21        66.8506   60.8781   51.1124 U2         2 LUT      0.127376
    230 H15        76.2326   64.1518   40.3429 T3         2 LUT      0.093200
    231 H14        75.4578   65.1264   43.1237 T2         2 LUT      0.068865
    232 H12        73.3840   64.3921   43.9255 T1         2 LUT      0.095507
    233 H11        72.0595   62.2498   42.6946 U9         2 LUT      0.068930
    234 H10        71.6528   63.9018   45.3056 U8         2 LUT      0.083911
    235 H1         89.2311   66.3626   31.0649 Q1         2 LUT      0.297311
@<TRIPOS>BOND
    1     6     1 1
    2     7     2 1
    3     8     3 1
    4     9     4 1
    5    11     4 1
    6    12     6 1
    7    13     9 1
    8    16     9 1
    9    25     5 1
   10    25    16 1
   11    26    10 1
   12    26    17 1
   13    27    18 1
   14    28    14 1
   15    28    19 1
   16    29    12 1
   17    30    13 1
   18    31    24 1
   19    32     1 1
   20    32    25 1
   21    33    21 1
   22    33    26 1
   23    34    22 1
   24    34    27 1
   25    35    23 1
   26    35    28 1
   27    36    12 1
   28    36    24 1
   29    37    13 1
   30    37    15 1
   31    38    31 1
   32    39    20 1
   33    39    32 1
   34    40     2 1
   35    40    33 1
   36    41     3 1
   37    41    34 1
   38    42     4 1
   39    42    35 1
   40    43    38 1
   41    44     5 1
   42    44    17 1
   43    44    39 1
   44    45    10 1
   45    45    18 1
   46    45    40 1
   47    46    19 1
   48    46    41 1
   49    47    14 1
   50    47    16 1
   51    47    42 1
   52    48    38 1
   53    49    48 1
   54    50    49 1
   55    51    50 1
   56    52    51 1
   57    53    51 1
   58    54    53 1
   59    55    54 1
   60    56    55 1
   61    57    56 1
   62    58    56 1
   63    59    58 1
   64    60    59 1
   65    61    60 1
   66    62    61 1
   67    63    61 1
   68    64    27 1
   69    64    46 1
   70    65     5 1
   71    65    10 1
   72    65    64 1
   73    65    14 1
   74    66    23 1
   75    67    23 1
   76    68    23 1
   77    69    22 1
   78    70    22 1
   79    71    22 1
   80    72    21 1
   81    73    21 1
   82    74    21 1
   83    75    20 1
   84    76    20 1
   85    77    20 1
   86    78    15 1
   87    79    15 1
   88    80    15 1
   89    81     8 1
   90    82     8 1
   91    83     8 1
   92    84     7 1
   93    85     7 1
   94    86     6 1
   95    87     6 1
   96    88     3 1
   97    89     3 1
   98    90     1 1
   99    91     1 1
  100    92    63 1
  101    93    63 1
  102    94    63 1
  103    95    62 1
  104    96    62 1
  105    97    62 1
  106    98    60 1
  107    99    60 1
  108   100    59 1
  109   101    59 1
  110   102    58 1
  111   103    58 1
  112   104    57 1
  113   105    57 1
  114   106    57 1
  115   107    55 1
  116   108    55 1
  117   109    54 1
  118   110    54 1
  119   111    53 1
  120   112    53 1
  121   113    19 1
  122   114    18 1
  123   115    17 1
  124   116     9 1
  125   117     2 1
  126   118    52 1
  127   119    52 1
  128   120    52 1
  129   121    51 1
  130   122    50 1
  131   123    50 1
  132   124    49 1
  133   125    49 1
  134   126    48 1
  135   127    48 1
  136   128    43 1
  137   129    43 1
  138   130    43 1
  139   131    39 1
  140   132    32 1
  141   133    31 1
  142   134    61 1
  143   135    56 1
  144   136    24 1
  145   137    24 1
  146   139   138 1
  147   140   139 1
  148   141   140 1
  149   142   140 1
  150   143   142 1
  151   144   138 1
  152   144   143 1
  153   145   144 1
  154   146   145 1
  155   147   146 1
  156   148   147 1
  157   149   148 1
  158   150   149 1
  159   151   150 1
  160   152   151 1
  161   153   152 1
  162   154   138 1
  163   155   138 1
  164   156   143 1
  165   157   147 1
  166   158   151 1
  167   160   159 1
  168   161   160 1
  169   162   161 1
  170   163   161 1
  171   164   163 1
  172   165   159 1
  173   165   164 1
  174   166   165 1
  175   167   166 1
  176   168   167 1
  177   169   168 1
  178   170   169 1
  179   171   170 1
  180   172   171 1
  181   173   172 1
  182   174   153 1
  183   174   173 1
  184   175   159 1
  185   176   159 1
  186   177   164 1
  187   178   168 1
  188   179   172 1
  189   180   179 1
  190   181   179 1
  191   182   179 1
  192   183   178 1
  193   184   178 1
  194   185   178 1
  195   186   177 1
  196   187   177 1
  197   188   177 1
  198   189   176 1
  199   190   176 1
  200   191   176 1
  201   192   175 1
  202   193   175 1
  203   194   175 1
  204   195   160 1
  205   196   160 1
  206   197   158 1
  207   198   158 1
  208   199   158 1
  209   200   157 1
  210   201   157 1
  211   202   157 1
  212   203   156 1
  213   204   156 1
  214   205   156 1
  215   206   155 1
  216   207   155 1
  217   208   155 1
  218   209   154 1
  219   210   154 1
  220   211   154 1
  221   212   141 1
  222   213   146 1
  223   214   145 1
  224   215   142 1
  225   216   142 1
  226   217   174 1
  227   218   173 1
  228   219   171 1
  229   220   170 1
  230   221   169 1
  231   222   140 1
  232   223   167 1
  233   224   166 1
  234   225   165 1
  235   226   163 1
  236   227   161 1
  237   228   139 1
  238   229   139 1
  239   230   153 1
  240   231   152 1
  241   232   150 1
  242   233   149 1
  243   234   148 1
  244   235   162 1
  245   65    153 1
  246   65    174 1
@<TRIPOS>SUBSTRUCTURE
      1 CLA               1 ****               0 ****  **** 
      2 LUT             138 ****               0 ****  **** 
