@<TRIPOS>MOLECULE
Cpptraj generated mol2 file.
  235   246     2     0     0
SMALL
USER_CHARGES


@<TRIPOS>ATOM
      1 CAA        78.3745   58.4145   33.7659 a2         1 CLA     -0.055900
      2 CAB        79.2309   61.7406   42.8213 c8         1 CLA     -0.148500
      3 CAC        72.0881   58.1338   42.6246 a2         1 CLA     -0.012600
      4 CAD        73.9604   55.8721   35.2318 ck         1 CLA      0.398800
      5 NA         77.4786   58.8718   37.1713 ns         1 CLA     -0.225500
      6 CBA        79.5571   58.1453   32.7973 a2         1 CLA     -0.135000
      7 CBB        79.8924   62.9045   43.1368 c0         1 CLA     -0.395200
      8 CBC        72.2526   56.5841   42.6899 a3         1 CLA     -0.037700
      9 CBD        75.4751   56.3529   34.7674 a1         1 CLA     -0.053900
     10 NB         77.6425   60.3232   39.7188 nm         1 CLA     -0.295700
     11 OBD        73.2384   55.1246   34.5472 o2         1 CLA     -0.494600
     12 CGA        79.9035   56.6986   32.3983 c4         1 CLA      0.827000
     13 CGD        76.3532   55.1887   34.3898 c4         1 CLA      0.655300
     14 ND         74.6472   58.1069   37.8683 nm         1 CLA     -0.291600
     15 CED        76.5203   52.7817   34.4239 a3         1 CLA      0.005400
     16 CHA        75.9936   57.2155   35.9721 cs         1 CLA     -0.123800
     17 CHB        79.3247   60.2826   37.9335 aa         1 CLA     -0.291900
     18 CHC        76.6067   60.4458   41.9876 aa         1 CLA     -0.090400
     19 CHD        72.9259   58.0606   39.6426 aa         1 CLA     -0.052000
     20 CMA        80.6802   57.6110   36.7031 a3         1 CLA     -0.230700
     21 CMB        80.9225   62.0610   39.9343 a3         1 CLA     -0.180800
     22 CMC        74.5830   59.7445   44.2225 a3         1 CLA     -0.134000
     23 CMD        71.2016   56.3454   37.5564 a3         1 CLA     -0.141100
     24 C1         80.7539   54.6382   33.4956 a2         1 CLA      0.023000
     25 C1A        77.2176   57.9544   36.1195 ac         1 CLA     -0.015100
     26 C1B        78.8013   60.7745   39.1670 cr         1 CLA      0.054700
     27 C1C        75.3139   59.8177   41.7348 cn         1 CLA     -0.005600
     28 C1D        73.4031   57.7052   38.3979 ap         1 CLA     -0.047300
     29 O1A        79.5554   56.0959   31.3914 o2         1 CLA     -0.610800
     30 O1D        77.2966   55.2045   33.5062 o2         1 CLA     -0.558200
     31 C2         81.2603   54.2416   34.8872 c8         1 CLA     -0.325100
     32 C2A        78.4932   57.8843   35.2343 a1         1 CLA      0.098600
     33 C2B        79.5749   61.4669   40.2395 cb         1 CLA      0.088500
     34 C2C        74.3377   59.5208   42.7479 cb         1 CLA      0.053700
     35 C2D        72.6484   56.8828   37.3924 cb         1 CLA      0.058900
     36 O2A        80.5204   56.0801   33.4642 o1         1 CLA     -0.437200
     37 O2D        76.0417   53.9840   35.0225 o1         1 CLA     -0.357600
     38 C3         81.9634   53.1104   35.2487 c5         1 CLA      0.031200
     39 C3A        79.5665   58.5975   36.1098 a1         1 CLA      0.166800
     40 C3B        78.9244   61.2803   41.4237 cb         1 CLA      0.035000
     41 C3C        73.3296   58.8916   42.0985 cb         1 CLA     -0.089900
     42 C3D        73.7051   56.6372   36.4373 cb         1 CLA     -0.035900
     43 C4         81.1859   51.9147   35.6686 a3         1 CLA     -0.053300
     44 C4A        78.7664   59.3751   37.0978 ac         1 CLA      0.001800
     45 C4B        77.6669   60.6936   41.0809 cn         1 CLA     -0.020900
     46 C4C        73.7293   58.7235   40.7115 cr         1 CLA     -0.044400
     47 C4D        74.8792   57.3594   36.8152 c6         1 CLA     -0.046000
     48 C5         83.4908   52.9606   35.1265 a2         1 CLA     -0.070400
     49 C6         84.4251   54.0847   35.5543 a2         1 CLA      0.043900
     50 C7         84.2657   54.4830   37.0449 a2         1 CLA     -0.150000
     51 C8         84.7418   55.9627   37.4086 a1         1 CLA      0.064200
     52 C9         86.1531   56.3456   36.8111 a3         1 CLA     -0.259300
     53 C10        84.6479   56.1811   38.8815 a2         1 CLA     -0.071900
     54 C11        83.2344   56.2474   39.5399 a2         1 CLA      0.014500
     55 C12        83.2902   56.6134   41.0249 a2         1 CLA     -0.112100
     56 C13        81.8891   56.6406   41.7685 a1         1 CLA      0.089200
     57 C14        81.0252   57.9458   41.3645 a3         1 CLA     -0.239100
     58 C15        82.1450   56.7805   43.2945 a2         1 CLA     -0.102200
     59 C16        83.0213   57.9422   43.8287 a2         1 CLA      0.023900
     60 C17        82.3347   58.9072   44.8018 a2         1 CLA     -0.105700
     61 C18        83.0835   60.2028   45.4252 a1         1 CLA      0.206800
     62 C19        84.4358   59.7534   45.9548 a3         1 CLA     -0.280100
     63 C20        83.2855   61.3014   44.3624 a3         1 CLA     -0.280100
     64 NC         74.9569   59.3406   40.5088 nx         1 CLA     -0.309200
     65 MG         76.1790   59.2970   38.7779 mg         1 CLA      0.895000
     66 HMD3       70.9560   56.0097   38.6082 dc         1 CLA      0.064300
     67 HMD2       70.4982   57.1257   37.3364 dc         1 CLA      0.064300
     68 HMD1       71.0117   55.5519   36.8196 dc         1 CLA      0.064300
     69 HMC3       75.3850   59.2347   44.6780 dc         1 CLA      0.052100
     70 HMC2       74.7207   60.8109   44.4180 dc         1 CLA      0.052100
     71 HMC1       73.6344   59.5458   44.7465 dc         1 CLA      0.052100
     72 HMB3       81.7577   61.4268   40.1424 dc         1 CLA      0.063600
     73 HMB2       80.8868   62.2917   38.9098 dc         1 CLA      0.063600
     74 HMB1       80.9784   62.9565   40.5310 dc         1 CLA      0.063600
     75 HMA3       80.3608   56.8531   37.3830 dc         1 CLA      0.058300
     76 HMA2       81.2668   57.2225   35.8650 dc         1 CLA      0.058300
     77 HMA1       81.3169   58.2160   37.3364 dc         1 CLA      0.058300
     78 HED3       77.6533   52.7277   34.2920 dc         1 CLA      0.079300
     79 HED2       76.3175   51.8875   35.0739 dc         1 CLA      0.079300
     80 HED1       75.9424   52.6853   33.5079 dc         1 CLA      0.079300
     81 HBC3       73.0165   56.2150   43.4136 dc         1 CLA      0.016300
     82 HBC2       71.2896   56.1817   43.0850 dc         1 CLA      0.016300
     83 HBC1       72.5285   56.2123   41.7353 dc         1 CLA      0.016300
     84 HBB2       80.1203   63.1416   44.2174 da         1 CLA      0.183000
     85 HBB1       80.1857   63.5794   42.3184 da         1 CLA      0.183000
     86 HBA2       79.2447   58.6426   31.8441 dc         1 CLA      0.029400
     87 HBA1       80.4175   58.6116   33.1845 dc         1 CLA      0.029400
     88 HAC2       71.8334   58.3896   43.6517 dc         1 CLA      0.029300
     89 HAC1       71.2179   58.2730   42.0138 dc         1 CLA      0.029300
     90 HAA2       77.5216   57.9422   33.3285 dc         1 CLA      0.028700
     91 HAA1       78.1641   59.4852   33.8778 dc         1 CLA      0.028700
     92 H203       83.6544   62.1922   44.8542 dc         1 CLA      0.065600
     93 H202       83.9969   60.9561   43.6393 dc         1 CLA      0.065600
     94 H201       82.3358   61.4755   43.8848 dc         1 CLA      0.065600
     95 H193       85.0718   59.4223   45.1361 dc         1 CLA      0.065600
     96 H192       84.8944   60.5333   46.5016 dc         1 CLA      0.065600
     97 H191       84.3461   58.8923   46.6570 dc         1 CLA      0.065600
     98 H172       81.4231   59.2321   44.3415 dc         1 CLA      0.027600
     99 H171       82.0044   58.1754   45.5300 dc         1 CLA      0.027600
    100 H162       83.8757   57.4559   44.3813 dc         1 CLA      0.002900
    101 H161       83.3864   58.6216   43.0313 dc         1 CLA      0.002900
    102 H152       81.1724   56.7085   43.7239 dc         1 CLA      0.029100
    103 H151       82.6819   55.8573   43.4958 dc         1 CLA      0.029100
    104 H143       81.5815   58.8659   41.4348 dc         1 CLA      0.063600
    105 H142       80.5727   57.9518   40.3625 dc         1 CLA      0.063600
    106 H141       80.1312   57.9978   42.0403 dc         1 CLA      0.063600
    107 H122       83.8588   55.8341   41.5211 dc         1 CLA      0.032500
    108 H121       83.7242   57.6239   41.1783 dc         1 CLA      0.032500
    109 H112       82.7021   57.0423   39.0078 dc         1 CLA      0.006600
    110 H111       82.7611   55.2567   39.4525 dc         1 CLA      0.006600
    111 H102       85.2566   55.3962   39.2841 dc         1 CLA      0.024100
    112 H101       85.1645   57.1256   39.1272 dc         1 CLA      0.024100
    113 HHD        72.0010   57.6162   40.0252 da         1 CLA      0.174300
    114 HHC        76.7958   60.7217   42.9969 da         1 CLA      0.136800
    115 HHB        80.3485   60.5523   37.9164 da         1 CLA      0.138300
    116 HBD        75.2209   56.8673   33.8634 dc         1 CLA      0.107700
    117 HAB        78.9551   61.2157   43.7340 da         1 CLA      0.155200
    118 H93        86.0997   56.1719   35.7838 dc         1 CLA      0.069500
    119 H92        86.4245   57.3351   37.1122 dc         1 CLA      0.069500
    120 H91        86.8406   55.7047   37.3381 dc         1 CLA      0.069500
    121 H8         84.1197   56.6664   36.8431 dc         1 CLA      0.029300
    122 H72        83.2194   54.2697   37.3154 dc         1 CLA      0.044400
    123 H71        84.8175   53.7848   37.6746 dc         1 CLA      0.044400
    124 H62        85.4539   53.8017   35.4160 dc         1 CLA      0.015600
    125 H61        84.2905   54.9072   34.9383 dc         1 CLA      0.015600
    126 H52        83.7926   52.1019   35.6862 dc         1 CLA      0.033200
    127 H51        83.6667   52.7070   34.1044 dc         1 CLA      0.033200
    128 H43        80.0372   52.1779   35.6866 dc         1 CLA      0.037000
    129 H42        81.3261   51.0588   35.0134 dc         1 CLA      0.037000
    130 H41        81.5053   51.5040   36.6068 dc         1 CLA      0.037000
    131 H3A        80.0734   59.3922   35.5210 dc         1 CLA      0.041100
    132 H2A        78.8261   56.8318   35.2296 dc         1 CLA      0.083100
    133 H2         81.1513   55.0678   35.4765 da         1 CLA      0.180900
    134 H18        82.4684   60.6301   46.2805 dc         1 CLA     -0.003900
    135 H13        81.3690   55.6862   41.5319 dc         1 CLA      0.019700
    136 H12        79.8616   54.0298   33.2163 dc         1 CLA      0.120400
    137 H11        81.5681   54.3570   32.7567 dc         1 CLA      0.120400
    138 C1         68.7275   61.5652   50.3802 Z1         2 LUT      0.509236
    139 C2         67.4253   61.2807   51.1191 Z2         2 LUT     -0.434695
    140 C3         66.4335   62.4163   51.2604 Z3         2 LUT      0.437453
    141 O3         66.1978   62.6632   52.6492 S1         2 LUT     -0.547129
    142 C4         66.8607   63.6936   50.6143 Z4         2 LUT     -0.468603
    143 C5         67.6097   63.5435   49.3471 Z5         2 LUT      0.279246
    144 C6         68.5224   62.5545   49.1979 Z6         2 LUT     -0.305473
    145 C7         68.9949   62.0233   47.8347 Z7         2 LUT      0.069402
    146 C8         69.8741   62.6889   47.0524 Z8         2 LUT     -0.191631
    147 C9         70.4204   62.2798   45.7483 Z9         2 LUT      0.196698
    148 C10        71.3483   63.0948   45.0682 Y1         2 LUT     -0.208611
    149 C11        72.0226   63.0013   43.8147 Y2         2 LUT      0.030784
    150 C12        73.2185   63.6250   43.4618 Y3         2 LUT     -0.220316
    151 C13        74.0169   63.6122   42.2222 Y4         2 LUT      0.215937
    152 C14        75.2878   64.2129   42.1916 Y5         2 LUT     -0.185793
    153 C15        76.2495   64.2463   41.1598 Y6         2 LUT     -0.057835
    154 C16        69.0894   60.0608   50.0544 Y7         2 LUT     -0.405615
    155 C17        69.7187   62.2116   51.4039 Y7         2 LUT     -0.405615
    156 C18        66.7857   64.0401   48.2029 Y9         2 LUT     -0.369639
    157 C19        69.8702   61.0720   44.9346 W1         2 LUT     -0.333362
    158 C20        73.4978   62.7551   41.0746 W2         2 LUT     -0.323439
    159 C21        86.9962   65.5428   34.4596 Z1         2 LUT      0.406104
    160 C22        87.9051   65.2085   33.0994 Z2         2 LUT     -0.404965
    161 C23        88.3581   66.2986   32.2610 Z3         2 LUT      0.391255
    162 O23        89.1294   65.7174   31.1721 S1         2 LUT     -0.528210
    163 C24        87.2307   67.3117   32.0440 W6         2 LUT     -0.258361
    164 C25        86.1391   67.3334   32.7711 Z5         2 LUT      0.133546
    165 C26        85.7671   66.3114   33.8778 W8         2 LUT     -0.147008
    166 C27        84.9114   67.0017   34.9800 Z7         2 LUT      0.023843
    167 C28        83.8250   66.4384   35.5618 Z8         2 LUT     -0.216987
    168 C29        83.2798   66.7603   36.9258 Z9         2 LUT      0.206524
    169 C30        82.1311   66.2059   37.4019 Y1         2 LUT     -0.215556
    170 C31        81.3989   66.4090   38.6519 Y2         2 LUT      0.025142
    171 C32        80.3286   65.6538   38.8800 Y3         2 LUT     -0.212209
    172 C33        79.5624   65.6617   40.0472 Y4         2 LUT      0.240937
    173 C34        78.3737   64.8926   40.1528 Y5         2 LUT     -0.218862
    174 C35        77.5031   64.7229   41.2949 Y6         2 LUT     -0.023547
    175 C36        87.9682   66.3292   35.3916 Y7         2 LUT     -0.393485
    176 C37        86.6329   64.1696   35.1258 Y7         2 LUT     -0.393485
    177 C38        84.9492   68.1393   32.2891 Y9         2 LUT     -0.387526
    178 C39        84.0436   67.7545   37.7855 W1         2 LUT     -0.322618
    179 C40        79.8954   66.7425   41.0730 W2         2 LUT     -0.358472
    180 H403       80.8902   66.7699   41.5519 R7         2 LUT      0.097720
    181 H402       79.7038   67.7257   40.6302 R7         2 LUT      0.097720
    182 H401       79.1359   66.7900   41.8833 R7         2 LUT      0.097720
    183 H393       83.3382   68.2641   38.5007 R4         2 LUT      0.082505
    184 H392       84.7183   67.1940   38.4065 R4         2 LUT      0.082505
    185 H391       84.6723   68.4934   37.3158 R4         2 LUT      0.082505
    186 H383       84.3865   68.4437   33.2251 R1         2 LUT      0.104030
    187 H382       85.2003   69.0547   31.7626 R1         2 LUT      0.104030
    188 H381       84.1386   67.5735   31.7935 R1         2 LUT      0.104030
    189 H373       86.2416   64.4481   36.1295 T4         2 LUT      0.089537
    190 H372       85.9323   63.5155   34.5798 T4         2 LUT      0.089537
    191 H371       87.5401   63.6340   35.3794 T4         2 LUT      0.089537
    192 H363       87.6154   66.3767   36.4071 T4         2 LUT      0.089537
    193 H362       89.0076   65.9863   35.5201 T4         2 LUT      0.089537
    194 H361       88.0027   67.3813   35.0779 T4         2 LUT      0.089537
    195 H222       88.7155   64.5632   33.4745 U2         2 LUT      0.127376
    196 H221       87.2172   64.6554   32.4212 U2         2 LUT      0.127376
    197 H203       73.1812   61.7494   41.3090 R7         2 LUT      0.087068
    198 H202       72.6219   63.2264   40.6019 R7         2 LUT      0.087068
    199 H201       74.3059   62.4996   40.3656 R7         2 LUT      0.087068
    200 H193       70.3718   60.8779   44.0150 R4         2 LUT      0.089716
    201 H192       69.8569   60.0810   45.3993 R4         2 LUT      0.089716
    202 H191       68.9404   61.3519   44.4860 R4         2 LUT      0.089716
    203 H183       66.1932   64.9137   48.4856 R1         2 LUT      0.094572
    204 H182       67.3984   64.3955   47.3466 R1         2 LUT      0.094572
    205 H181       66.1981   63.2791   47.8494 R1         2 LUT      0.094572
    206 H173       69.7992   61.4842   52.1936 T4         2 LUT      0.093752
    207 H172       70.6508   62.4648   50.8960 T4         2 LUT      0.093752
    208 H171       69.2814   63.1033   51.7904 T4         2 LUT      0.093752
    209 H163       70.1350   60.0004   49.7137 T4         2 LUT      0.093752
    210 H162       69.0352   59.3906   51.0018 T4         2 LUT      0.093752
    211 H161       68.4093   59.6822   49.2947 T4         2 LUT      0.093752
    212 HO3        65.3431   62.2831   53.0214 Q1         2 LUT      0.300121
    213 H8         70.2576   63.6338   47.4788 U7         2 LUT      0.080784
    214 H7         68.5028   61.0973   47.5785 U6         2 LUT      0.042190
    215 H42        66.0217   64.3714   50.5890 U5         2 LUT      0.145166
    216 H41        67.5598   64.0344   51.4111 U5         2 LUT      0.145166
    217 H35        77.7849   64.9913   42.2747 T3         2 LUT      0.077919
    218 H34        78.0229   64.2670   39.2941 T2         2 LUT      0.073626
    219 H32        79.9995   64.9366   38.0656 T1         2 LUT      0.092510
    220 H31        81.7497   67.1605   39.3786 U9         2 LUT      0.070048
    221 H30        81.6134   65.5175   36.7313 U8         2 LUT      0.085442
    222 H3         65.4834   62.1023   50.8061 U3         2 LUT     -0.031596
    223 H28        83.3754   65.6058   34.9791 U7         2 LUT      0.084728
    224 H27        85.3310   67.8122   35.5474 U6         2 LUT      0.087291
    225 H26        84.9650   65.6922   33.3792 Q6         2 LUT      0.075325
    226 H24        87.4391   68.0381   31.2782 Q5         2 LUT      0.094482
    227 H23        89.0963   66.8666   32.8684 U3         2 LUT     -0.024869
    228 H22        66.8859   60.5067   50.6464 U2         2 LUT      0.127376
    229 H21        67.6854   60.8987   52.1115 U2         2 LUT      0.127376
    230 H15        75.8958   64.0226   40.1913 T3         2 LUT      0.093200
    231 H14        75.5451   64.6396   43.0848 T2         2 LUT      0.068865
    232 H12        73.5453   64.2035   44.3844 T1         2 LUT      0.095507
    233 H11        71.6190   62.3904   43.0527 U9         2 LUT      0.068930
    234 H10        71.7737   63.8623   45.6464 U8         2 LUT      0.083911
    235 H1         88.6944   65.8591   30.3276 Q1         2 LUT      0.297311
@<TRIPOS>BOND
    1     6     1 1
    2     7     2 1
    3     8     3 1
    4     9     4 1
    5    11     4 1
    6    12     6 1
    7    13     9 1
    8    16     9 1
    9    25     5 1
   10    25    16 1
   11    26    10 1
   12    26    17 1
   13    27    18 1
   14    28    14 1
   15    28    19 1
   16    29    12 1
   17    30    13 1
   18    31    24 1
   19    32     1 1
   20    32    25 1
   21    33    21 1
   22    33    26 1
   23    34    22 1
   24    34    27 1
   25    35    23 1
   26    35    28 1
   27    36    12 1
   28    36    24 1
   29    37    13 1
   30    37    15 1
   31    38    31 1
   32    39    20 1
   33    39    32 1
   34    40     2 1
   35    40    33 1
   36    41     3 1
   37    41    34 1
   38    42     4 1
   39    42    35 1
   40    43    38 1
   41    44     5 1
   42    44    17 1
   43    44    39 1
   44    45    10 1
   45    45    18 1
   46    45    40 1
   47    46    19 1
   48    46    41 1
   49    47    14 1
   50    47    16 1
   51    47    42 1
   52    48    38 1
   53    49    48 1
   54    50    49 1
   55    51    50 1
   56    52    51 1
   57    53    51 1
   58    54    53 1
   59    55    54 1
   60    56    55 1
   61    57    56 1
   62    58    56 1
   63    59    58 1
   64    60    59 1
   65    61    60 1
   66    62    61 1
   67    63    61 1
   68    64    27 1
   69    64    46 1
   70    65     5 1
   71    65    10 1
   72    65    64 1
   73    65    14 1
   74    66    23 1
   75    67    23 1
   76    68    23 1
   77    69    22 1
   78    70    22 1
   79    71    22 1
   80    72    21 1
   81    73    21 1
   82    74    21 1
   83    75    20 1
   84    76    20 1
   85    77    20 1
   86    78    15 1
   87    79    15 1
   88    80    15 1
   89    81     8 1
   90    82     8 1
   91    83     8 1
   92    84     7 1
   93    85     7 1
   94    86     6 1
   95    87     6 1
   96    88     3 1
   97    89     3 1
   98    90     1 1
   99    91     1 1
  100    92    63 1
  101    93    63 1
  102    94    63 1
  103    95    62 1
  104    96    62 1
  105    97    62 1
  106    98    60 1
  107    99    60 1
  108   100    59 1
  109   101    59 1
  110   102    58 1
  111   103    58 1
  112   104    57 1
  113   105    57 1
  114   106    57 1
  115   107    55 1
  116   108    55 1
  117   109    54 1
  118   110    54 1
  119   111    53 1
  120   112    53 1
  121   113    19 1
  122   114    18 1
  123   115    17 1
  124   116     9 1
  125   117     2 1
  126   118    52 1
  127   119    52 1
  128   120    52 1
  129   121    51 1
  130   122    50 1
  131   123    50 1
  132   124    49 1
  133   125    49 1
  134   126    48 1
  135   127    48 1
  136   128    43 1
  137   129    43 1
  138   130    43 1
  139   131    39 1
  140   132    32 1
  141   133    31 1
  142   134    61 1
  143   135    56 1
  144   136    24 1
  145   137    24 1
  146   139   138 1
  147   140   139 1
  148   141   140 1
  149   142   140 1
  150   143   142 1
  151   144   138 1
  152   144   143 1
  153   145   144 1
  154   146   145 1
  155   147   146 1
  156   148   147 1
  157   149   148 1
  158   150   149 1
  159   151   150 1
  160   152   151 1
  161   153   152 1
  162   154   138 1
  163   155   138 1
  164   156   143 1
  165   157   147 1
  166   158   151 1
  167   160   159 1
  168   161   160 1
  169   162   161 1
  170   163   161 1
  171   164   163 1
  172   165   159 1
  173   165   164 1
  174   166   165 1
  175   167   166 1
  176   168   167 1
  177   169   168 1
  178   170   169 1
  179   171   170 1
  180   172   171 1
  181   173   172 1
  182   174   153 1
  183   174   173 1
  184   175   159 1
  185   176   159 1
  186   177   164 1
  187   178   168 1
  188   179   172 1
  189   180   179 1
  190   181   179 1
  191   182   179 1
  192   183   178 1
  193   184   178 1
  194   185   178 1
  195   186   177 1
  196   187   177 1
  197   188   177 1
  198   189   176 1
  199   190   176 1
  200   191   176 1
  201   192   175 1
  202   193   175 1
  203   194   175 1
  204   195   160 1
  205   196   160 1
  206   197   158 1
  207   198   158 1
  208   199   158 1
  209   200   157 1
  210   201   157 1
  211   202   157 1
  212   203   156 1
  213   204   156 1
  214   205   156 1
  215   206   155 1
  216   207   155 1
  217   208   155 1
  218   209   154 1
  219   210   154 1
  220   211   154 1
  221   212   141 1
  222   213   146 1
  223   214   145 1
  224   215   142 1
  225   216   142 1
  226   217   174 1
  227   218   173 1
  228   219   171 1
  229   220   170 1
  230   221   169 1
  231   222   140 1
  232   223   167 1
  233   224   166 1
  234   225   165 1
  235   226   163 1
  236   227   161 1
  237   228   139 1
  238   229   139 1
  239   230   153 1
  240   231   152 1
  241   232   150 1
  242   233   149 1
  243   234   148 1
  244   235   162 1
  245   65    153 1
  246   65    174 1
@<TRIPOS>SUBSTRUCTURE
      1 CLA               1 ****               0 ****  **** 
      2 LUT             138 ****               0 ****  **** 
