@<TRIPOS>MOLECULE
Cpptraj generated mol2 file.
  235   246     2     0     0
SMALL
USER_CHARGES


@<TRIPOS>ATOM
      1 CAA        78.3855   58.7968   33.2743 a2         1 CLA     -0.055900
      2 CAB        78.7309   62.0397   42.6995 c8         1 CLA     -0.148500
      3 CAC        71.8044   57.7001   42.2530 a2         1 CLA     -0.012600
      4 CAD        74.1970   56.1637   34.5115 ck         1 CLA      0.398800
      5 NA         77.3421   59.1163   36.7929 ns         1 CLA     -0.225500
      6 CBA        79.5912   58.7659   32.3640 a2         1 CLA     -0.135000
      7 CBB        79.9254   61.9920   43.2539 c0         1 CLA     -0.395200
      8 CBC        71.6830   56.1974   42.0474 a3         1 CLA     -0.037700
      9 CBD        75.6193   56.8063   34.1520 a1         1 CLA     -0.053900
     10 NB         77.3254   60.4731   39.5717 nm         1 CLA     -0.295700
     11 OBD        73.6313   55.3634   33.8017 o2         1 CLA     -0.494600
     12 CGA        80.1643   57.4582   31.9741 c4         1 CLA      0.827000
     13 CGD        76.6160   55.8317   33.5665 c4         1 CLA      0.655300
     14 ND         74.7192   57.8660   37.5169 nm         1 CLA     -0.291600
     15 CED        77.7955   53.6851   34.1617 a3         1 CLA      0.005400
     16 CHA        76.0069   57.6829   35.4000 cs         1 CLA     -0.123800
     17 CHB        79.1281   60.5749   37.8741 aa         1 CLA     -0.291900
     18 CHC        76.0830   60.4546   41.6808 aa         1 CLA     -0.090400
     19 CHD        73.0551   57.5247   39.2687 aa         1 CLA     -0.052000
     20 CMA        80.6712   58.3384   36.2364 a3         1 CLA     -0.230700
     21 CMB        80.6672   62.3131   39.8210 a3         1 CLA     -0.180800
     22 CMC        73.8049   59.6452   43.7272 a3         1 CLA     -0.134000
     23 CMD        71.8747   55.3394   36.9960 a3         1 CLA     -0.141100
     24 C1         81.0733   55.3758   32.6992 a2         1 CLA      0.023000
     25 C1A        77.1500   58.4422   35.6409 ac         1 CLA     -0.015100
     26 C1B        78.5857   60.8674   39.1175 cr         1 CLA      0.054700
     27 C1C        74.9439   59.5778   41.3843 cn         1 CLA     -0.005600
     28 C1D        73.5864   57.2304   37.9953 ap         1 CLA     -0.047300
     29 O1A        80.0832   57.0023   30.8426 o2         1 CLA     -0.610800
     30 O1D        77.1682   55.8481   32.4586 o2         1 CLA     -0.558200
     31 C2         81.5620   54.8332   33.9735 c8         1 CLA     -0.325100
     32 C2A        78.4934   58.4207   34.8160 a1         1 CLA      0.098600
     33 C2B        79.2828   61.6334   40.1076 cb         1 CLA      0.088500
     34 C2C        73.8784   59.2181   42.3087 cb         1 CLA      0.053700
     35 C2D        73.0704   56.2830   36.9671 cb         1 CLA      0.058900
     36 O2A        80.7117   56.7579   32.9926 o1         1 CLA     -0.437200
     37 O2D        76.8134   54.7960   34.4982 o1         1 CLA     -0.357600
     38 C3         82.5162   53.8348   34.0090 c5         1 CLA      0.031200
     39 C3A        79.5054   59.2845   35.6696 a1         1 CLA      0.166800
     40 C3B        78.4498   61.5417   41.3193 cb         1 CLA      0.035000
     41 C3C        73.0134   58.3938   41.6223 cb         1 CLA     -0.089900
     42 C3D        73.9514   56.5576   35.8652 cb         1 CLA     -0.035900
     43 C4         82.1067   52.3710   33.9620 a3         1 CLA     -0.053300
     44 C4A        78.5983   59.7300   36.8427 ac         1 CLA      0.001800
     45 C4B        77.1612   60.8620   40.8648 cn         1 CLA     -0.020900
     46 C4C        73.5229   58.3240   40.2589 cr         1 CLA     -0.044400
     47 C4D        74.9693   57.4406   36.3337 c6         1 CLA     -0.046000
     48 C5         84.0016   53.9428   33.8486 a2         1 CLA     -0.070400
     49 C6         84.5306   55.2686   34.3659 a2         1 CLA      0.043900
     50 C7         84.4084   55.3745   35.9175 a2         1 CLA     -0.150000
     51 C8         84.7964   56.7778   36.3841 a1         1 CLA      0.064200
     52 C9         86.0565   57.3677   35.6349 a3         1 CLA     -0.259300
     53 C10        85.1010   56.8497   37.9392 a2         1 CLA     -0.071900
     54 C11        83.7205   56.4980   38.6662 a2         1 CLA      0.014500
     55 C12        83.7279   56.8641   40.1583 a2         1 CLA     -0.112100
     56 C13        82.2855   56.8340   40.8364 a1         1 CLA      0.089200
     57 C14        81.2526   57.8937   40.1719 a3         1 CLA     -0.239100
     58 C15        82.4183   56.9597   42.3960 a2         1 CLA     -0.102200
     59 C16        82.6156   58.3435   43.0926 a2         1 CLA      0.023900
     60 C17        84.0162   58.8720   42.9893 a2         1 CLA     -0.105700
     61 C18        84.5399   59.8596   44.0061 a1         1 CLA      0.206800
     62 C19        83.5177   61.0829   44.1130 a3         1 CLA     -0.280100
     63 C20        84.9949   59.2530   45.4015 a3         1 CLA     -0.280100
     64 NC         74.6691   59.0922   40.1848 nx         1 CLA     -0.309200
     65 MG         75.8676   59.3068   38.5234 mg         1 CLA      0.895000
     66 HMD3       71.7874   54.8224   37.9563 dc         1 CLA      0.064300
     67 HMD2       70.9270   55.7638   36.6137 dc         1 CLA      0.064300
     68 HMD1       72.0745   54.6484   36.2192 dc         1 CLA      0.064300
     69 HMC3       72.8172   59.4707   44.3223 dc         1 CLA      0.052100
     70 HMC2       74.5047   59.0808   44.3241 dc         1 CLA      0.052100
     71 HMC1       74.1494   60.6858   43.9135 dc         1 CLA      0.052100
     72 HMB3       81.4521   61.5621   39.9479 dc         1 CLA      0.063600
     73 HMB2       80.7969   62.6366   38.7729 dc         1 CLA      0.063600
     74 HMB1       80.9962   63.0628   40.6002 dc         1 CLA      0.063600
     75 HMA3       81.3249   58.9904   36.7729 dc         1 CLA      0.058300
     76 HMA2       80.1742   57.6817   36.8898 dc         1 CLA      0.058300
     77 HMA1       81.1767   57.8097   35.3677 dc         1 CLA      0.058300
     78 HED3       78.7965   54.0621   34.3372 dc         1 CLA      0.079300
     79 HED2       77.4947   52.9660   34.9575 dc         1 CLA      0.079300
     80 HED1       77.8082   53.1959   33.1814 dc         1 CLA      0.079300
     81 HBC3       72.6426   55.8061   41.6588 dc         1 CLA      0.016300
     82 HBC2       71.1362   55.7142   42.9006 dc         1 CLA      0.016300
     83 HBC1       70.9953   56.0757   41.1855 dc         1 CLA      0.016300
     84 HBB2       80.1465   62.2966   44.3216 da         1 CLA      0.183000
     85 HBB1       80.7608   61.5341   42.7501 da         1 CLA      0.183000
     86 HBA2       79.2711   59.3464   31.4537 dc         1 CLA      0.029400
     87 HBA1       80.4116   59.2782   32.8978 dc         1 CLA      0.029400
     88 HAC2       71.8514   57.7638   43.3393 dc         1 CLA      0.029300
     89 HAC1       70.9322   58.2838   41.9865 dc         1 CLA      0.029300
     90 HAA2       77.6328   58.1925   32.7945 dc         1 CLA      0.028700
     91 HAA1       77.8351   59.7608   33.2735 dc         1 CLA      0.028700
     92 H203       84.1850   58.6511   45.7874 dc         1 CLA      0.065600
     93 H202       85.8872   58.6390   45.2036 dc         1 CLA      0.065600
     94 H201       85.3623   59.9794   46.1074 dc         1 CLA      0.065600
     95 H193       83.3784   61.4899   43.0869 dc         1 CLA      0.065600
     96 H192       82.5807   60.7459   44.5672 dc         1 CLA      0.065600
     97 H191       83.9054   61.9194   44.7241 dc         1 CLA      0.065600
     98 H172       84.6712   57.9683   42.9097 dc         1 CLA      0.027600
     99 H171       84.0743   59.3301   42.0381 dc         1 CLA      0.027600
    100 H162       81.9504   59.1470   42.7691 dc         1 CLA      0.002900
    101 H161       82.4129   58.0603   44.1402 dc         1 CLA      0.002900
    102 H152       81.4192   56.6859   42.7827 dc         1 CLA      0.029100
    103 H151       83.1064   56.2616   42.7727 dc         1 CLA      0.029100
    104 H143       80.3263   58.1181   40.7453 dc         1 CLA      0.063600
    105 H142       81.7116   58.8956   40.0714 dc         1 CLA      0.063600
    106 H141       80.9783   57.4499   39.1772 dc         1 CLA      0.063600
    107 H122       84.3812   56.2670   40.7969 dc         1 CLA      0.032500
    108 H121       83.9768   57.9792   40.2105 dc         1 CLA      0.032500
    109 H112       82.9606   57.0982   38.1598 dc         1 CLA      0.006600
    110 H111       83.5752   55.4145   38.6113 dc         1 CLA      0.006600
    111 H102       85.8006   56.1342   38.3457 dc         1 CLA      0.024100
    112 H101       85.3946   57.8889   38.1164 dc         1 CLA      0.024100
    113 HHD        72.1852   56.9248   39.4398 da         1 CLA      0.174300
    114 HHC        76.1892   60.6692   42.7664 da         1 CLA      0.136800
    115 HHB        80.1329   60.9478   37.5902 da         1 CLA      0.138300
    116 HBD        75.3574   57.6420   33.4398 dc         1 CLA      0.107700
    117 HAB        77.9378   62.4195   43.3542 da         1 CLA      0.155200
    118 H93        86.8481   56.6770   35.3058 dc         1 CLA      0.069500
    119 H92        85.8318   57.8485   34.6065 dc         1 CLA      0.069500
    120 H91        86.4906   58.1823   36.2291 dc         1 CLA      0.069500
    121 H8         83.9692   57.4150   36.0833 dc         1 CLA      0.029300
    122 H72        83.3371   55.1789   36.2284 dc         1 CLA      0.044400
    123 H71        85.0638   54.5872   36.4018 dc         1 CLA      0.044400
    124 H62        85.5144   55.3836   33.9979 dc         1 CLA      0.015600
    125 H61        83.8375   56.0748   34.0051 dc         1 CLA      0.015600
    126 H52        84.5061   53.1823   34.4047 dc         1 CLA      0.033200
    127 H51        84.1775   53.8432   32.7831 dc         1 CLA      0.033200
    128 H43        81.4533   52.2250   34.7991 dc         1 CLA      0.037000
    129 H42        81.6212   52.0738   33.0398 dc         1 CLA      0.037000
    130 H41        83.0017   51.6997   34.0520 dc         1 CLA      0.037000
    131 H3A        79.8472   60.1485   35.0807 dc         1 CLA      0.041100
    132 H2A        78.7202   57.3823   34.7373 dc         1 CLA      0.083100
    133 H2         81.3245   55.3173   34.9303 da         1 CLA      0.180900
    134 H18        85.4628   60.2219   43.5951 dc         1 CLA     -0.003900
    135 H13        81.8818   55.8575   40.5884 dc         1 CLA      0.019700
    136 H12        80.2370   54.7499   32.4289 dc         1 CLA      0.120400
    137 H11        81.9187   55.3297   32.0529 dc         1 CLA      0.120400
    138 C1         68.9466   60.3924   49.5925 Z1         2 LUT      0.509236
    139 C2         68.6664   61.2237   50.8373 Z2         2 LUT     -0.434695
    140 C3         67.1770   61.6347   50.9313 Z3         2 LUT      0.437453
    141 O3         67.0938   62.2504   52.2372 S1         2 LUT     -0.547129
    142 C4         66.7785   62.5173   49.7816 Z4         2 LUT     -0.468603
    143 C5         67.2971   61.9606   48.4868 Z5         2 LUT      0.279246
    144 C6         68.1914   60.9651   48.3863 Z6         2 LUT     -0.305473
    145 C7         68.8573   60.6708   47.1544 Z7         2 LUT      0.069402
    146 C8         69.7407   61.4676   46.4318 Z8         2 LUT     -0.191631
    147 C9         70.3822   61.2467   45.1298 Z9         2 LUT      0.196698
    148 C10        71.1197   62.2601   44.6032 Y1         2 LUT     -0.208611
    149 C11        71.6783   62.3903   43.3255 Y2         2 LUT      0.030784
    150 C12        72.6722   63.3057   43.1070 Y3         2 LUT     -0.220316
    151 C13        73.5262   63.2614   41.8895 Y4         2 LUT      0.215937
    152 C14        74.6399   64.0264   41.8081 Y5         2 LUT     -0.185793
    153 C15        75.6572   64.1321   40.7951 Y6         2 LUT     -0.057835
    154 C16        68.2774   58.9588   49.8570 Y7         2 LUT     -0.405615
    155 C17        70.3861   59.9882   49.4670 Y7         2 LUT     -0.405615
    156 C18        66.9931   62.9489   47.4343 Y9         2 LUT     -0.369639
    157 C19        69.7571   60.1411   44.2140 W1         2 LUT     -0.333362
    158 C20        73.0388   62.4928   40.6694 W2         2 LUT     -0.323439
    159 C21        86.8156   65.6335   34.5108 Z1         2 LUT      0.406104
    160 C22        87.5605   65.0520   33.3158 Z2         2 LUT     -0.404965
    161 C23        87.7852   66.0599   32.2433 Z3         2 LUT      0.391255
    162 O23        88.5966   65.3870   31.2537 S1         2 LUT     -0.528210
    163 C24        86.6180   66.9442   31.9404 W6         2 LUT     -0.258361
    164 C25        85.5103   66.9348   32.7595 Z5         2 LUT      0.133546
    165 C26        85.3950   66.1225   34.0022 W8         2 LUT     -0.147008
    166 C27        84.6480   66.8514   35.1637 Z7         2 LUT      0.023843
    167 C28        83.6729   66.2680   35.9447 Z8         2 LUT     -0.216987
    168 C29        83.0904   66.7477   37.2197 Z9         2 LUT      0.206524
    169 C30        82.0549   66.0238   37.7491 Y1         2 LUT     -0.215556
    170 C31        81.2922   66.1502   38.9536 Y2         2 LUT      0.025142
    171 C32        80.1072   65.4900   39.1856 Y3         2 LUT     -0.212209
    172 C33        79.1928   65.6732   40.3367 Y4         2 LUT      0.240937
    173 C34        77.9815   64.9255   40.3533 Y5         2 LUT     -0.218862
    174 C35        76.7916   64.8389   41.1334 Y6         2 LUT     -0.023547
    175 C36        87.6979   66.6459   35.3059 Y7         2 LUT     -0.393485
    176 C37        86.7837   64.3662   35.5009 Y7         2 LUT     -0.393485
    177 C38        84.2738   67.6706   32.2888 Y9         2 LUT     -0.387526
    178 C39        83.8285   67.9356   37.9309 W1         2 LUT     -0.322618
    179 C40        79.4778   66.7060   41.4125 W2         2 LUT     -0.358472
    180 H403       80.5094   66.7524   41.7801 R7         2 LUT      0.097720
    181 H402       79.2496   67.7005   41.0306 R7         2 LUT      0.097720
    182 H401       78.8451   66.5088   42.2667 R7         2 LUT      0.097720
    183 H393       83.7598   67.9898   39.0456 R4         2 LUT      0.082505
    184 H392       84.8920   67.9421   37.8250 R4         2 LUT      0.082505
    185 H391       83.5369   68.9220   37.6001 R4         2 LUT      0.082505
    186 H383       83.4164   66.9404   32.3269 R1         2 LUT      0.104030
    187 H382       83.8928   68.5301   32.8723 R1         2 LUT      0.104030
    188 H381       84.3421   68.1071   31.2619 R1         2 LUT      0.104030
    189 H373       86.4276   63.4227   35.0741 T4         2 LUT      0.089537
    190 H372       87.7936   64.1273   35.8724 T4         2 LUT      0.089537
    191 H371       86.2271   64.7191   36.3637 T4         2 LUT      0.089537
    192 H363       87.9879   67.5157   34.6355 T4         2 LUT      0.089537
    193 H362       87.2306   67.0151   36.2394 T4         2 LUT      0.089537
    194 H361       88.5831   66.1796   35.6332 T4         2 LUT      0.089537
    195 H222       88.5202   64.6274   33.5391 U2         2 LUT      0.127376
    196 H221       86.9493   64.3657   32.7820 U2         2 LUT      0.127376
    197 H203       72.0643   62.7496   40.2862 R7         2 LUT      0.087068
    198 H202       73.6966   62.6834   39.7442 R7         2 LUT      0.087068
    199 H201       73.0558   61.3925   40.8507 R7         2 LUT      0.087068
    200 H193       70.0138   59.0980   44.4776 R4         2 LUT      0.089716
    201 H192       68.6561   60.2586   44.2255 R4         2 LUT      0.089716
    202 H191       69.8506   60.2448   43.1547 R4         2 LUT      0.089716
    203 H183       67.9461   63.3721   47.2380 R1         2 LUT      0.094572
    204 H182       66.7420   62.3974   46.4855 R1         2 LUT      0.094572
    205 H181       66.2499   63.6427   47.5927 R1         2 LUT      0.094572
    206 H173       70.9332   59.6787   50.3889 T4         2 LUT      0.093752
    207 H172       70.4842   59.0314   48.8827 T4         2 LUT      0.093752
    208 H171       71.0235   60.7765   49.0270 T4         2 LUT      0.093752
    209 H163       68.7380   58.3148   50.5822 T4         2 LUT      0.093752
    210 H162       67.2335   58.9605   50.1105 T4         2 LUT      0.093752
    211 H161       68.1728   58.4304   48.9053 T4         2 LUT      0.093752
    212 HO3        66.9090   61.5916   52.9485 Q1         2 LUT      0.300121
    213 H8         70.2025   62.3710   46.9902 U7         2 LUT      0.080784
    214 H7         68.4161   59.6455   46.7591 U6         2 LUT      0.042190
    215 H42        65.7131   62.7960   49.6635 U5         2 LUT      0.145166
    216 H41        67.1473   63.5499   49.9306 U5         2 LUT      0.145166
    217 H35        76.7407   65.4376   42.0352 T3         2 LUT      0.077919
    218 H34        77.9076   64.2744   39.4527 T2         2 LUT      0.073626
    219 H32        79.7371   64.7952   38.4377 T1         2 LUT      0.092510
    220 H31        81.6239   66.9172   39.6177 U9         2 LUT      0.070048
    221 H30        81.8688   65.1538   37.1394 U8         2 LUT      0.085442
    222 H3         66.5388   60.6945   50.8788 U3         2 LUT     -0.031596
    223 H28        83.3585   65.3500   35.6006 U7         2 LUT      0.084728
    224 H27        84.9706   67.8709   35.3765 U6         2 LUT      0.087291
    225 H26        84.8289   65.1974   33.7303 Q6         2 LUT      0.075325
    226 H24        86.6233   67.4654   31.0296 Q5         2 LUT      0.094482
    227 H23        88.6216   66.7466   32.5859 U3         2 LUT     -0.024869
    228 H22        69.0354   60.7531   51.7459 U2         2 LUT      0.127376
    229 H21        69.2175   62.1848   50.7045 U2         2 LUT      0.127376
    230 H15        75.6316   63.5297   39.9635 T3         2 LUT      0.093200
    231 H14        74.8219   64.6647   42.6541 T2         2 LUT      0.068865
    232 H12        72.8807   64.0717   43.8090 T1         2 LUT      0.095507
    233 H11        71.4709   61.5992   42.5852 U9         2 LUT      0.068930
    234 H10        71.4735   63.0004   45.2847 U8         2 LUT      0.083911
    235 H1         88.0250   64.9945   30.5769 Q1         2 LUT      0.297311
@<TRIPOS>BOND
    1     6     1 1
    2     7     2 1
    3     8     3 1
    4     9     4 1
    5    11     4 1
    6    12     6 1
    7    13     9 1
    8    16     9 1
    9    25     5 1
   10    25    16 1
   11    26    10 1
   12    26    17 1
   13    27    18 1
   14    28    14 1
   15    28    19 1
   16    29    12 1
   17    30    13 1
   18    31    24 1
   19    32     1 1
   20    32    25 1
   21    33    21 1
   22    33    26 1
   23    34    22 1
   24    34    27 1
   25    35    23 1
   26    35    28 1
   27    36    12 1
   28    36    24 1
   29    37    13 1
   30    37    15 1
   31    38    31 1
   32    39    20 1
   33    39    32 1
   34    40     2 1
   35    40    33 1
   36    41     3 1
   37    41    34 1
   38    42     4 1
   39    42    35 1
   40    43    38 1
   41    44     5 1
   42    44    17 1
   43    44    39 1
   44    45    10 1
   45    45    18 1
   46    45    40 1
   47    46    19 1
   48    46    41 1
   49    47    14 1
   50    47    16 1
   51    47    42 1
   52    48    38 1
   53    49    48 1
   54    50    49 1
   55    51    50 1
   56    52    51 1
   57    53    51 1
   58    54    53 1
   59    55    54 1
   60    56    55 1
   61    57    56 1
   62    58    56 1
   63    59    58 1
   64    60    59 1
   65    61    60 1
   66    62    61 1
   67    63    61 1
   68    64    27 1
   69    64    46 1
   70    65     5 1
   71    65    10 1
   72    65    64 1
   73    65    14 1
   74    66    23 1
   75    67    23 1
   76    68    23 1
   77    69    22 1
   78    70    22 1
   79    71    22 1
   80    72    21 1
   81    73    21 1
   82    74    21 1
   83    75    20 1
   84    76    20 1
   85    77    20 1
   86    78    15 1
   87    79    15 1
   88    80    15 1
   89    81     8 1
   90    82     8 1
   91    83     8 1
   92    84     7 1
   93    85     7 1
   94    86     6 1
   95    87     6 1
   96    88     3 1
   97    89     3 1
   98    90     1 1
   99    91     1 1
  100    92    63 1
  101    93    63 1
  102    94    63 1
  103    95    62 1
  104    96    62 1
  105    97    62 1
  106    98    60 1
  107    99    60 1
  108   100    59 1
  109   101    59 1
  110   102    58 1
  111   103    58 1
  112   104    57 1
  113   105    57 1
  114   106    57 1
  115   107    55 1
  116   108    55 1
  117   109    54 1
  118   110    54 1
  119   111    53 1
  120   112    53 1
  121   113    19 1
  122   114    18 1
  123   115    17 1
  124   116     9 1
  125   117     2 1
  126   118    52 1
  127   119    52 1
  128   120    52 1
  129   121    51 1
  130   122    50 1
  131   123    50 1
  132   124    49 1
  133   125    49 1
  134   126    48 1
  135   127    48 1
  136   128    43 1
  137   129    43 1
  138   130    43 1
  139   131    39 1
  140   132    32 1
  141   133    31 1
  142   134    61 1
  143   135    56 1
  144   136    24 1
  145   137    24 1
  146   139   138 1
  147   140   139 1
  148   141   140 1
  149   142   140 1
  150   143   142 1
  151   144   138 1
  152   144   143 1
  153   145   144 1
  154   146   145 1
  155   147   146 1
  156   148   147 1
  157   149   148 1
  158   150   149 1
  159   151   150 1
  160   152   151 1
  161   153   152 1
  162   154   138 1
  163   155   138 1
  164   156   143 1
  165   157   147 1
  166   158   151 1
  167   160   159 1
  168   161   160 1
  169   162   161 1
  170   163   161 1
  171   164   163 1
  172   165   159 1
  173   165   164 1
  174   166   165 1
  175   167   166 1
  176   168   167 1
  177   169   168 1
  178   170   169 1
  179   171   170 1
  180   172   171 1
  181   173   172 1
  182   174   153 1
  183   174   173 1
  184   175   159 1
  185   176   159 1
  186   177   164 1
  187   178   168 1
  188   179   172 1
  189   180   179 1
  190   181   179 1
  191   182   179 1
  192   183   178 1
  193   184   178 1
  194   185   178 1
  195   186   177 1
  196   187   177 1
  197   188   177 1
  198   189   176 1
  199   190   176 1
  200   191   176 1
  201   192   175 1
  202   193   175 1
  203   194   175 1
  204   195   160 1
  205   196   160 1
  206   197   158 1
  207   198   158 1
  208   199   158 1
  209   200   157 1
  210   201   157 1
  211   202   157 1
  212   203   156 1
  213   204   156 1
  214   205   156 1
  215   206   155 1
  216   207   155 1
  217   208   155 1
  218   209   154 1
  219   210   154 1
  220   211   154 1
  221   212   141 1
  222   213   146 1
  223   214   145 1
  224   215   142 1
  225   216   142 1
  226   217   174 1
  227   218   173 1
  228   219   171 1
  229   220   170 1
  230   221   169 1
  231   222   140 1
  232   223   167 1
  233   224   166 1
  234   225   165 1
  235   226   163 1
  236   227   161 1
  237   228   139 1
  238   229   139 1
  239   230   153 1
  240   231   152 1
  241   232   150 1
  242   233   149 1
  243   234   148 1
  244   235   162 1
  245   65    153 1
  246   65    174 1
@<TRIPOS>SUBSTRUCTURE
      1 CLA               1 ****               0 ****  **** 
      2 LUT             138 ****               0 ****  **** 
