@<TRIPOS>MOLECULE
Cpptraj generated mol2 file.
  235   246     2     0     0
SMALL
USER_CHARGES


@<TRIPOS>ATOM
      1 CAA        78.6857   56.9109   33.9324 a2         1 CLA     -0.055900
      2 CAB        78.7560   60.9946   42.6467 c8         1 CLA     -0.148500
      3 CAC        71.6058   57.2036   42.5317 a2         1 CLA     -0.012600
      4 CAD        74.0053   54.7561   35.0499 ck         1 CLA      0.398800
      5 NA         77.4535   57.5399   37.1969 ns         1 CLA     -0.225500
      6 CBA        79.8073   56.3091   33.0492 a2         1 CLA     -0.135000
      7 CBB        79.9432   61.1211   43.2786 c0         1 CLA     -0.395200
      8 CBC        71.7765   55.7244   42.5141 a3         1 CLA     -0.037700
      9 CBD        75.5966   55.0236   34.8632 a1         1 CLA     -0.053900
     10 NB         77.4461   59.0913   39.7107 nm         1 CLA     -0.295700
     11 OBD        73.3664   54.1210   34.2502 o2         1 CLA     -0.494600
     12 CGA        79.6697   54.7617   32.9006 c4         1 CLA      0.827000
     13 CGD        76.3208   53.6945   34.8496 c4         1 CLA      0.655300
     14 ND         74.6366   56.7999   37.8963 nm         1 CLA     -0.291600
     15 CED        77.1286   51.7854   36.1897 a3         1 CLA      0.005400
     16 CHA        76.0621   55.9867   35.9207 cs         1 CLA     -0.123800
     17 CHB        79.3524   58.7148   38.2170 aa         1 CLA     -0.291900
     18 CHC        76.1722   59.4770   41.8124 aa         1 CLA     -0.090400
     19 CHD        72.7998   56.8643   39.4747 aa         1 CLA     -0.052000
     20 CMA        80.7447   56.3798   36.8388 a3         1 CLA     -0.230700
     21 CMB        80.8871   60.6104   40.1130 a3         1 CLA     -0.180800
     22 CMC        73.8076   59.3174   43.8884 a3         1 CLA     -0.134000
     23 CMD        71.2222   55.2766   37.1241 a3         1 CLA     -0.141100
     24 C1         80.2952   52.6589   33.8243 a2         1 CLA      0.023000
     25 C1A        77.3068   56.7005   36.1018 ac         1 CLA     -0.015100
     26 C1B        78.7557   59.3116   39.3088 cr         1 CLA      0.054700
     27 C1C        74.9127   58.8931   41.5611 cn         1 CLA     -0.005600
     28 C1D        73.3384   56.4509   38.2586 ap         1 CLA     -0.047300
     29 O1A        79.1193   54.2235   31.9562 o2         1 CLA     -0.610800
     30 O1D        76.8384   53.1535   33.8716 o2         1 CLA     -0.558200
     31 C2         80.8272   52.0759   35.0911 c8         1 CLA     -0.325100
     32 C2A        78.6106   56.5077   35.4164 a1         1 CLA      0.098600
     33 C2B        79.4450   60.1305   40.2528 cb         1 CLA      0.088500
     34 C2C        73.7207   58.8088   42.4680 cb         1 CLA      0.053700
     35 C2D        72.6835   55.7553   37.2191 cb         1 CLA      0.058900
     36 O2A        80.2945   54.1016   33.9822 o1         1 CLA     -0.437200
     37 O2D        76.4425   53.1386   36.0774 o1         1 CLA     -0.357600
     38 C3         81.6223   51.0004   35.1136 c5         1 CLA      0.031200
     39 C3A        79.6526   57.2908   36.2792 a1         1 CLA      0.166800
     40 C3B        78.6433   60.2239   41.3593 cb         1 CLA      0.035000
     41 C3C        72.8233   57.8876   41.8054 cb         1 CLA     -0.089900
     42 C3D        73.7270   55.4423   36.3331 cb         1 CLA     -0.035900
     43 C4         81.1094   49.6854   35.5588 a3         1 CLA     -0.053300
     44 C4A        78.7381   57.9114   37.2777 ac         1 CLA      0.001800
     45 C4B        77.3685   59.5424   40.9752 cn         1 CLA     -0.020900
     46 C4C        73.3553   57.6560   40.5063 cr         1 CLA     -0.044400
     47 C4D        74.8969   56.0790   36.7849 c6         1 CLA     -0.046000
     48 C5         83.1812   51.0618   34.8109 a2         1 CLA     -0.070400
     49 C6         83.9524   52.3468   35.1534 a2         1 CLA      0.043900
     50 C7         84.0429   52.8427   36.6123 a2         1 CLA     -0.150000
     51 C8         85.0373   54.0444   36.9025 a1         1 CLA      0.064200
     52 C9         86.4837   53.5983   36.4413 a3         1 CLA     -0.259300
     53 C10        85.0814   54.4662   38.4028 a2         1 CLA     -0.071900
     54 C11        83.7591   54.7431   39.1679 a2         1 CLA      0.014500
     55 C12        83.9937   55.3034   40.6284 a2         1 CLA     -0.112100
     56 C13        82.7714   55.6889   41.4533 a1         1 CLA      0.089200
     57 C14        81.8115   56.6886   40.7112 a3         1 CLA     -0.239100
     58 C15        83.1866   56.2076   42.8527 a2         1 CLA     -0.102200
     59 C16        83.5608   57.6555   43.0458 a2         1 CLA      0.023900
     60 C17        84.0222   57.8409   44.4815 a2         1 CLA     -0.105700
     61 C18        84.5499   59.1802   44.7965 a1         1 CLA      0.206800
     62 C19        83.4371   60.2628   44.6331 a3         1 CLA     -0.280100
     63 C20        85.2433   59.2825   46.1831 a3         1 CLA     -0.280100
     64 NC         74.6622   58.1787   40.4156 nx         1 CLA     -0.309200
     65 MG         76.0098   58.0674   38.7822 mg         1 CLA      0.895000
     66 HMD3       71.0497   54.3788   36.5511 dc         1 CLA      0.064300
     67 HMD2       70.9740   55.1686   38.1799 dc         1 CLA      0.064300
     68 HMD1       70.7178   56.0865   36.6131 dc         1 CLA      0.064300
     69 HMC3       74.5470   58.7273   44.4507 dc         1 CLA      0.052100
     70 HMC2       74.1097   60.2836   43.8347 dc         1 CLA      0.052100
     71 HMC1       72.8412   59.2172   44.3613 dc         1 CLA      0.052100
     72 HMB3       81.2032   60.6252   39.0836 dc         1 CLA      0.063600
     73 HMB2       80.9151   61.6313   40.4034 dc         1 CLA      0.063600
     74 HMB1       81.6034   60.0253   40.7728 dc         1 CLA      0.063600
     75 HMA3       80.3581   55.6822   37.5454 dc         1 CLA      0.058300
     76 HMA2       81.3537   55.8078   36.1248 dc         1 CLA      0.058300
     77 HMA1       81.5444   56.9702   37.3429 dc         1 CLA      0.058300
     78 HED3       76.6765   51.0694   35.5566 dc         1 CLA      0.079300
     79 HED2       78.0971   52.0197   35.7296 dc         1 CLA      0.079300
     80 HED1       77.2579   51.3857   37.2099 dc         1 CLA      0.079300
     81 HBC3       71.0340   55.1510   43.1049 dc         1 CLA      0.016300
     82 HBC2       71.8588   55.3669   41.4587 dc         1 CLA      0.016300
     83 HBC1       72.7410   55.5645   43.0128 dc         1 CLA      0.016300
     84 HBB2       79.9989   61.6440   44.2701 da         1 CLA      0.183000
     85 HBB1       80.8650   60.6326   42.8809 da         1 CLA      0.183000
     86 HBA2       79.9470   56.7654   32.0520 dc         1 CLA      0.029400
     87 HBA1       80.8329   56.4546   33.4552 dc         1 CLA      0.029400
     88 HAC2       71.5162   57.5809   43.5715 dc         1 CLA      0.029300
     89 HAC1       70.7054   57.4867   42.0196 dc         1 CLA      0.029300
     90 HAA2       77.7779   56.6208   33.4098 dc         1 CLA      0.028700
     91 HAA1       78.6975   57.9986   33.9001 dc         1 CLA      0.028700
     92 H203       84.6253   59.5141   47.0567 dc         1 CLA      0.065600
     93 H202       85.6330   58.3113   46.2811 dc         1 CLA      0.065600
     94 H201       85.9498   60.0191   46.0562 dc         1 CLA      0.065600
     95 H193       82.8813   60.2046   43.7028 dc         1 CLA      0.065600
     96 H192       82.7718   60.1402   45.4685 dc         1 CLA      0.065600
     97 H191       83.8083   61.2895   44.6894 dc         1 CLA      0.065600
     98 H172       83.0903   57.6891   45.0513 dc         1 CLA      0.027600
     99 H171       84.8478   57.1215   44.7103 dc         1 CLA      0.027600
    100 H162       84.3736   57.9642   42.3885 dc         1 CLA      0.002900
    101 H161       82.6669   58.1976   42.8584 dc         1 CLA      0.002900
    102 H152       82.3080   56.0112   43.4173 dc         1 CLA      0.029100
    103 H151       84.0418   55.6951   43.1999 dc         1 CLA      0.029100
    104 H143       81.1500   56.2641   39.9379 dc         1 CLA      0.063600
    105 H142       81.1687   57.1560   41.4616 dc         1 CLA      0.063600
    106 H141       82.3779   57.4224   40.0926 dc         1 CLA      0.063600
    107 H122       84.5205   54.4922   41.1861 dc         1 CLA      0.032500
    108 H121       84.6617   56.1075   40.5855 dc         1 CLA      0.032500
    109 H112       83.1827   55.5119   38.6126 dc         1 CLA      0.006600
    110 H111       83.1842   53.8947   39.2108 dc         1 CLA      0.006600
    111 H102       85.7039   53.6728   38.8638 dc         1 CLA      0.024100
    112 H101       85.7184   55.3731   38.5254 dc         1 CLA      0.024100
    113 HHD        71.8227   56.4790   39.7331 da         1 CLA      0.174300
    114 HHC        76.3487   59.9296   42.7779 da         1 CLA      0.136800
    115 HHB        80.4356   58.9292   38.0452 da         1 CLA      0.138300
    116 HBD        75.6994   55.4668   33.8896 dc         1 CLA      0.107700
    117 HAB        77.8583   61.4959   43.0647 da         1 CLA      0.155200
    118 H93        86.4809   53.5378   35.3741 dc         1 CLA      0.069500
    119 H92        87.1639   54.3777   36.7410 dc         1 CLA      0.069500
    120 H91        86.6731   52.5904   36.8657 dc         1 CLA      0.069500
    121 H8         84.6876   54.9174   36.3482 dc         1 CLA      0.029300
    122 H72        83.0273   53.1126   36.9154 dc         1 CLA      0.044400
    123 H71        84.3926   52.0776   37.3337 dc         1 CLA      0.044400
    124 H62        84.8958   52.0828   34.6328 dc         1 CLA      0.015600
    125 H61        83.5507   53.1618   34.5468 dc         1 CLA      0.015600
    126 H52        83.6295   50.2797   35.4277 dc         1 CLA      0.033200
    127 H51        83.4180   50.8157   33.8372 dc         1 CLA      0.033200
    128 H43        80.9534   49.1294   34.6547 dc         1 CLA      0.037000
    129 H42        81.7733   49.0610   36.1492 dc         1 CLA      0.037000
    130 H41        80.1481   49.8646   36.1632 dc         1 CLA      0.037000
    131 H3A        80.2295   57.9377   35.6550 dc         1 CLA      0.041100
    132 H2A        78.7980   55.4553   35.5601 dc         1 CLA      0.083100
    133 H2         80.8579   52.6280   35.9691 da         1 CLA      0.180900
    134 H18        85.3420   59.3073   43.9549 dc         1 CLA     -0.003900
    135 H13        82.2718   54.7469   41.6350 dc         1 CLA      0.019700
    136 H12        79.2710   52.4228   33.6437 dc         1 CLA      0.120400
    137 H11        80.9153   52.3952   32.9085 dc         1 CLA      0.120400
    138 C1         68.2542   60.2452   48.6937 Z1         2 LUT      0.509236
    139 C2         66.7827   60.1439   49.2597 Z2         2 LUT     -0.434695
    140 C3         66.0491   61.4160   49.5611 Z3         2 LUT      0.437453
    141 O3         66.0429   61.7321   51.0087 S1         2 LUT     -0.547129
    142 C4         66.6895   62.5778   48.9085 Z4         2 LUT     -0.468603
    143 C5         67.3176   62.2867   47.6138 Z5         2 LUT      0.279246
    144 C6         68.1401   61.2506   47.4992 Z6         2 LUT     -0.305473
    145 C7         68.5030   60.6532   46.1495 Z7         2 LUT      0.069402
    146 C8         69.6404   61.1050   45.5587 Z8         2 LUT     -0.191631
    147 C9         70.0011   60.9878   44.1838 Z9         2 LUT      0.196698
    148 C10        71.0174   61.7931   43.6902 Y1         2 LUT     -0.208611
    149 C11        71.7070   61.7231   42.4489 Y2         2 LUT      0.030784
    150 C12        72.8509   62.2924   42.1374 Y3         2 LUT     -0.220316
    151 C13        73.6692   62.2038   40.9922 Y4         2 LUT      0.215937
    152 C14        74.9336   62.8055   41.1238 Y5         2 LUT     -0.185793
    153 C15        76.0570   62.9266   40.2723 Y6         2 LUT     -0.057835
    154 C16        68.7526   58.8584   48.3527 Y7         2 LUT     -0.405615
    155 C17        69.1120   60.7525   49.8752 Y7         2 LUT     -0.405615
    156 C18        66.6664   63.0456   46.5165 Y9         2 LUT     -0.369639
    157 C19        69.2180   59.9835   43.4112 W1         2 LUT     -0.333362
    158 C20        73.1179   61.4111   39.8311 W2         2 LUT     -0.323439
    159 C21        87.9110   63.9719   34.0369 Z1         2 LUT      0.406104
    160 C22        88.5406   63.6339   32.6257 Z2         2 LUT     -0.404965
    161 C23        88.4548   64.6385   31.5049 Z3         2 LUT      0.391255
    162 O23        89.0736   64.1531   30.3080 S1         2 LUT     -0.528210
    163 C24        87.0382   65.2909   31.5608 W6         2 LUT     -0.258361
    164 C25        86.1798   65.3249   32.5736 Z5         2 LUT      0.133546
    165 C26        86.3491   64.3410   33.7607 W8         2 LUT     -0.147008
    166 C27        85.6613   64.7716   35.0628 Z7         2 LUT      0.023843
    167 C28        84.4744   64.3453   35.5489 Z8         2 LUT     -0.216987
    168 C29        83.5588   64.9462   36.5380 Z9         2 LUT      0.206524
    169 C30        82.4913   64.2092   36.9580 Y1         2 LUT     -0.215556
    170 C31        81.5746   64.5204   38.0117 Y2         2 LUT      0.025142
    171 C32        80.4323   63.8226   38.2871 Y3         2 LUT     -0.212209
    172 C33        79.5171   63.9777   39.4280 Y4         2 LUT      0.240937
    173 C34        78.2805   63.3540   39.4272 Y5         2 LUT     -0.218862
    174 C35        77.3428   63.3490   40.4623 Y6         2 LUT     -0.023547
    175 C36        88.7134   65.0892   34.6794 Y7         2 LUT     -0.393485
    176 C37        88.0603   62.5729   34.7194 Y7         2 LUT     -0.393485
    177 C38        84.8941   66.1096   32.4048 Y9         2 LUT     -0.387526
    178 C39        84.0374   66.2488   37.0735 W1         2 LUT     -0.322618
    179 C40        79.8166   65.1620   40.3318 W2         2 LUT     -0.358472
    180 H403       80.6502   64.9918   40.9775 R7         2 LUT      0.097720
    181 H402       79.9348   66.0662   39.8299 R7         2 LUT      0.097720
    182 H401       78.9687   65.3370   41.1056 R7         2 LUT      0.097720
    183 H393       84.8892   66.2182   37.6973 R4         2 LUT      0.082505
    184 H392       84.2495   67.0193   36.3382 R4         2 LUT      0.082505
    185 H391       83.2541   66.6185   37.7333 R4         2 LUT      0.082505
    186 H383       84.1622   65.5879   31.8230 R1         2 LUT      0.104030
    187 H382       84.4588   66.3296   33.4325 R1         2 LUT      0.104030
    188 H381       85.1087   67.0437   31.8255 R1         2 LUT      0.104030
    189 H373       87.7238   61.6839   34.2254 T4         2 LUT      0.089537
    190 H372       89.1140   62.4014   34.8707 T4         2 LUT      0.089537
    191 H371       87.7167   62.5453   35.7882 T4         2 LUT      0.089537
    192 H363       89.7965   64.8516   34.7365 T4         2 LUT      0.089537
    193 H362       88.5992   66.1027   34.2402 T4         2 LUT      0.089537
    194 H361       88.3847   65.1675   35.7022 T4         2 LUT      0.089537
    195 H222       89.5922   63.3442   32.7665 U2         2 LUT      0.127376
    196 H221       88.1721   62.6940   32.3103 U2         2 LUT      0.127376
    197 H203       73.3176   60.3139   39.9745 R7         2 LUT      0.087068
    198 H202       72.0943   61.6258   39.5956 R7         2 LUT      0.087068
    199 H201       73.6173   61.4896   38.8670 R7         2 LUT      0.087068
    200 H193       68.2864   60.4082   42.9762 R4         2 LUT      0.089716
    201 H192       69.8339   59.6137   42.5623 R4         2 LUT      0.089716
    202 H191       68.8130   59.1517   43.9049 R4         2 LUT      0.089716
    203 H183       67.1184   62.7703   45.5431 R1         2 LUT      0.094572
    204 H182       65.5743   62.9178   46.3500 R1         2 LUT      0.094572
    205 H181       66.7158   64.1477   46.7287 R1         2 LUT      0.094572
    206 H173       69.9638   60.1408   50.1215 T4         2 LUT      0.093752
    207 H172       69.4525   61.7869   49.8464 T4         2 LUT      0.093752
    208 H171       68.5047   60.5426   50.7736 T4         2 LUT      0.093752
    209 H163       68.3574   58.2590   49.1320 T4         2 LUT      0.093752
    210 H162       68.3008   58.4823   47.4533 T4         2 LUT      0.093752
    211 H161       69.8391   58.7294   48.2676 T4         2 LUT      0.093752
    212 HO3        65.3464   61.2991   51.5443 Q1         2 LUT      0.300121
    213 H8         70.1813   61.8731   46.1003 U7         2 LUT      0.080784
    214 H7         67.6733   60.1464   45.6671 U6         2 LUT      0.042190
    215 H42        66.1399   63.4765   48.7912 U5         2 LUT      0.145166
    216 H41        67.5026   62.9365   49.5197 U5         2 LUT      0.145166
    217 H35        77.4998   63.7705   41.4455 T3         2 LUT      0.077919
    218 H34        77.9534   62.8003   38.4783 T2         2 LUT      0.073626
    219 H32        80.1724   63.0419   37.5731 T1         2 LUT      0.092510
    220 H31        81.8405   65.3534   38.6618 U9         2 LUT      0.070048
    221 H30        82.2754   63.3292   36.4586 U8         2 LUT      0.085442
    222 H3         65.0536   61.4055   49.1006 U3         2 LUT     -0.031596
    223 H28        84.2758   63.3284   35.2198 U7         2 LUT      0.084728
    224 H27        85.8712   65.7886   35.2564 U6         2 LUT      0.087291
    225 H26        85.8500   63.4596   33.3553 Q6         2 LUT      0.075325
    226 H24        86.9298   65.9990   30.8065 Q5         2 LUT      0.094482
    227 H23        89.1530   65.4381   31.8711 U3         2 LUT     -0.024869
    228 H22        66.2076   59.7716   48.3973 U2         2 LUT      0.127376
    229 H21        66.6165   59.4177   50.1067 U2         2 LUT      0.127376
    230 H15        75.8932   62.3580   39.3230 T3         2 LUT      0.093200
    231 H14        75.1258   63.2695   42.0472 T2         2 LUT      0.068865
    232 H12        73.0887   62.9621   42.9430 T1         2 LUT      0.095507
    233 H11        71.3137   61.0912   41.7000 U9         2 LUT      0.068930
    234 H10        71.5311   62.4324   44.4266 U8         2 LUT      0.083911
    235 H1         88.3925   63.9521   29.6315 Q1         2 LUT      0.297311
@<TRIPOS>BOND
    1     6     1 1
    2     7     2 1
    3     8     3 1
    4     9     4 1
    5    11     4 1
    6    12     6 1
    7    13     9 1
    8    16     9 1
    9    25     5 1
   10    25    16 1
   11    26    10 1
   12    26    17 1
   13    27    18 1
   14    28    14 1
   15    28    19 1
   16    29    12 1
   17    30    13 1
   18    31    24 1
   19    32     1 1
   20    32    25 1
   21    33    21 1
   22    33    26 1
   23    34    22 1
   24    34    27 1
   25    35    23 1
   26    35    28 1
   27    36    12 1
   28    36    24 1
   29    37    13 1
   30    37    15 1
   31    38    31 1
   32    39    20 1
   33    39    32 1
   34    40     2 1
   35    40    33 1
   36    41     3 1
   37    41    34 1
   38    42     4 1
   39    42    35 1
   40    43    38 1
   41    44     5 1
   42    44    17 1
   43    44    39 1
   44    45    10 1
   45    45    18 1
   46    45    40 1
   47    46    19 1
   48    46    41 1
   49    47    14 1
   50    47    16 1
   51    47    42 1
   52    48    38 1
   53    49    48 1
   54    50    49 1
   55    51    50 1
   56    52    51 1
   57    53    51 1
   58    54    53 1
   59    55    54 1
   60    56    55 1
   61    57    56 1
   62    58    56 1
   63    59    58 1
   64    60    59 1
   65    61    60 1
   66    62    61 1
   67    63    61 1
   68    64    27 1
   69    64    46 1
   70    65     5 1
   71    65    10 1
   72    65    64 1
   73    65    14 1
   74    66    23 1
   75    67    23 1
   76    68    23 1
   77    69    22 1
   78    70    22 1
   79    71    22 1
   80    72    21 1
   81    73    21 1
   82    74    21 1
   83    75    20 1
   84    76    20 1
   85    77    20 1
   86    78    15 1
   87    79    15 1
   88    80    15 1
   89    81     8 1
   90    82     8 1
   91    83     8 1
   92    84     7 1
   93    85     7 1
   94    86     6 1
   95    87     6 1
   96    88     3 1
   97    89     3 1
   98    90     1 1
   99    91     1 1
  100    92    63 1
  101    93    63 1
  102    94    63 1
  103    95    62 1
  104    96    62 1
  105    97    62 1
  106    98    60 1
  107    99    60 1
  108   100    59 1
  109   101    59 1
  110   102    58 1
  111   103    58 1
  112   104    57 1
  113   105    57 1
  114   106    57 1
  115   107    55 1
  116   108    55 1
  117   109    54 1
  118   110    54 1
  119   111    53 1
  120   112    53 1
  121   113    19 1
  122   114    18 1
  123   115    17 1
  124   116     9 1
  125   117     2 1
  126   118    52 1
  127   119    52 1
  128   120    52 1
  129   121    51 1
  130   122    50 1
  131   123    50 1
  132   124    49 1
  133   125    49 1
  134   126    48 1
  135   127    48 1
  136   128    43 1
  137   129    43 1
  138   130    43 1
  139   131    39 1
  140   132    32 1
  141   133    31 1
  142   134    61 1
  143   135    56 1
  144   136    24 1
  145   137    24 1
  146   139   138 1
  147   140   139 1
  148   141   140 1
  149   142   140 1
  150   143   142 1
  151   144   138 1
  152   144   143 1
  153   145   144 1
  154   146   145 1
  155   147   146 1
  156   148   147 1
  157   149   148 1
  158   150   149 1
  159   151   150 1
  160   152   151 1
  161   153   152 1
  162   154   138 1
  163   155   138 1
  164   156   143 1
  165   157   147 1
  166   158   151 1
  167   160   159 1
  168   161   160 1
  169   162   161 1
  170   163   161 1
  171   164   163 1
  172   165   159 1
  173   165   164 1
  174   166   165 1
  175   167   166 1
  176   168   167 1
  177   169   168 1
  178   170   169 1
  179   171   170 1
  180   172   171 1
  181   173   172 1
  182   174   153 1
  183   174   173 1
  184   175   159 1
  185   176   159 1
  186   177   164 1
  187   178   168 1
  188   179   172 1
  189   180   179 1
  190   181   179 1
  191   182   179 1
  192   183   178 1
  193   184   178 1
  194   185   178 1
  195   186   177 1
  196   187   177 1
  197   188   177 1
  198   189   176 1
  199   190   176 1
  200   191   176 1
  201   192   175 1
  202   193   175 1
  203   194   175 1
  204   195   160 1
  205   196   160 1
  206   197   158 1
  207   198   158 1
  208   199   158 1
  209   200   157 1
  210   201   157 1
  211   202   157 1
  212   203   156 1
  213   204   156 1
  214   205   156 1
  215   206   155 1
  216   207   155 1
  217   208   155 1
  218   209   154 1
  219   210   154 1
  220   211   154 1
  221   212   141 1
  222   213   146 1
  223   214   145 1
  224   215   142 1
  225   216   142 1
  226   217   174 1
  227   218   173 1
  228   219   171 1
  229   220   170 1
  230   221   169 1
  231   222   140 1
  232   223   167 1
  233   224   166 1
  234   225   165 1
  235   226   163 1
  236   227   161 1
  237   228   139 1
  238   229   139 1
  239   230   153 1
  240   231   152 1
  241   232   150 1
  242   233   149 1
  243   234   148 1
  244   235   162 1
  245   65    153 1
  246   65    174 1
@<TRIPOS>SUBSTRUCTURE
      1 CLA               1 ****               0 ****  **** 
      2 LUT             138 ****               0 ****  **** 
