@<TRIPOS>MOLECULE
Cpptraj generated mol2 file.
  235   246     2     0     0
SMALL
USER_CHARGES


@<TRIPOS>ATOM
      1 CAA        79.8063   58.2106   34.3829 a2         1 CLA     -0.055900
      2 CAB        79.9851   62.1269   43.0058 c8         1 CLA     -0.148500
      3 CAC        72.9974   58.0150   42.8757 a2         1 CLA     -0.012600
      4 CAD        75.5266   55.6394   35.3841 ck         1 CLA      0.398800
      5 NA         78.8957   58.2219   37.6800 ns         1 CLA     -0.225500
      6 CBA        81.0588   58.2457   33.5431 a2         1 CLA     -0.135000
      7 CBB        79.6168   61.7654   44.2478 c0         1 CLA     -0.395200
      8 CBC        72.9489   56.4138   42.8860 a3         1 CLA     -0.037700
      9 CBD        76.9835   56.0748   35.0498 a1         1 CLA     -0.053900
     10 NB         78.7140   59.9237   40.1212 nm         1 CLA     -0.295700
     11 OBD        74.7769   54.9892   34.6745 o2         1 CLA     -0.494600
     12 CGA        81.5933   56.8773   33.1350 c4         1 CLA      0.827000
     13 CGD        77.8478   54.9341   34.6115 c4         1 CLA      0.655300
     14 ND         75.9267   57.6778   38.1856 nm         1 CLA     -0.291600
     15 CED        78.3292   52.6583   35.0940 a3         1 CLA      0.005400
     16 CHA        77.4342   56.8476   36.3310 cs         1 CLA     -0.123800
     17 CHB        80.7068   59.5233   38.6217 aa         1 CLA     -0.291900
     18 CHC        77.3819   60.5090   42.1083 aa         1 CLA     -0.090400
     19 CHD        74.0890   57.6965   39.8553 aa         1 CLA     -0.052000
     20 CMA        81.9989   57.0921   37.2943 a3         1 CLA     -0.230700
     21 CMB        82.1530   61.3844   40.7170 a3         1 CLA     -0.180800
     22 CMC        75.0768   60.1265   44.1852 a3         1 CLA     -0.134000
     23 CMD        72.7521   55.7886   37.7348 a3         1 CLA     -0.141100
     24 C1         82.4330   54.8067   33.8202 a2         1 CLA      0.023000
     25 C1A        78.6741   57.4989   36.5604 ac         1 CLA     -0.015100
     26 C1B        80.1264   60.1758   39.7862 cr         1 CLA      0.054700
     27 C1C        76.2002   59.7685   41.7766 cn         1 CLA     -0.005600
     28 C1D        74.6838   57.2498   38.6291 ap         1 CLA     -0.047300
     29 O1A        81.4805   56.4362   32.0483 o2         1 CLA     -0.610800
     30 O1D        78.3473   54.9292   33.4929 o2         1 CLA     -0.558200
     31 C2         83.1289   54.1790   34.9704 c8         1 CLA     -0.325100
     32 C2A        79.9821   57.4366   35.7471 a1         1 CLA      0.098600
     33 C2B        80.7267   61.0445   40.7683 cb         1 CLA      0.088500
     34 C2C        75.0866   59.5588   42.7181 cb         1 CLA      0.053700
     35 C2D        74.1130   56.4202   37.6217 cb         1 CLA      0.058900
     36 O2A        82.0329   56.1526   34.1935 o1         1 CLA     -0.437200
     37 O2D        77.8315   53.9217   35.5618 o1         1 CLA     -0.357600
     38 C3         84.3910   53.7552   34.8975 c5         1 CLA      0.031200
     39 C3A        81.0486   58.1055   36.6598 a1         1 CLA      0.166800
     40 C3B        79.8189   61.2980   41.7996 cb         1 CLA      0.035000
     41 C3C        74.1910   58.6327   42.1580 cb         1 CLA     -0.089900
     42 C3D        75.1813   56.2573   36.6853 cb         1 CLA     -0.035900
     43 C4         84.9348   52.5572   34.0396 a3         1 CLA     -0.053300
     44 C4A        80.1525   58.6500   37.7519 ac         1 CLA      0.001800
     45 C4B        78.5487   60.5751   41.3392 cn         1 CLA     -0.020900
     46 C4C        74.6989   58.3828   40.8657 cr         1 CLA     -0.044400
     47 C4D        76.2717   56.9744   37.1332 c6         1 CLA     -0.046000
     48 C5         85.4996   54.7462   35.2349 a2         1 CLA     -0.070400
     49 C6         86.5801   54.3952   36.1956 a2         1 CLA      0.043900
     50 C7         87.6562   55.4037   36.5499 a2         1 CLA     -0.150000
     51 C8         88.4633   54.9972   37.8100 a1         1 CLA      0.064200
     52 C9         88.9198   53.5610   37.8719 a3         1 CLA     -0.259300
     53 C10        87.7895   55.4023   39.2024 a2         1 CLA     -0.071900
     54 C11        88.8694   55.8849   40.1715 a2         1 CLA      0.014500
     55 C12        88.2952   56.1955   41.5599 a2         1 CLA     -0.112100
     56 C13        89.0937   57.0369   42.5152 a1         1 CLA      0.089200
     57 C14        90.2921   56.2572   43.1454 a3         1 CLA     -0.239100
     58 C15        88.1576   57.6748   43.6489 a2         1 CLA     -0.102200
     59 C16        88.7355   58.6136   44.7070 a2         1 CLA      0.023900
     60 C17        87.8279   58.9788   45.8502 a2         1 CLA     -0.105700
     61 C18        87.5171   57.8736   46.9353 a1         1 CLA      0.206800
     62 C19        88.7977   57.5136   47.8365 a3         1 CLA     -0.280100
     63 C20        86.2987   58.2785   47.8042 a3         1 CLA     -0.280100
     64 NC         75.9240   59.0382   40.7039 nx         1 CLA     -0.309200
     65 MG         77.3413   58.8441   39.1165 mg         1 CLA      0.895000
     66 HMD3       72.4582   55.3714   38.6731 dc         1 CLA      0.064300
     67 HMD2       72.0635   56.5843   37.5813 dc         1 CLA      0.064300
     68 HMD1       72.6603   54.9621   36.9571 dc         1 CLA      0.064300
     69 HMC3       75.4701   59.3715   44.8279 dc         1 CLA      0.052100
     70 HMC2       75.7752   60.9253   44.3635 dc         1 CLA      0.052100
     71 HMC1       74.0592   60.3893   44.4913 dc         1 CLA      0.052100
     72 HMB3       82.2934   61.9447   39.8024 dc         1 CLA      0.063600
     73 HMB2       82.4439   61.8730   41.6326 dc         1 CLA      0.063600
     74 HMB1       82.7672   60.4670   40.6988 dc         1 CLA      0.063600
     75 HMA3       82.9100   57.5359   37.6814 dc         1 CLA      0.058300
     76 HMA2       81.5150   56.4015   38.0168 dc         1 CLA      0.058300
     77 HMA1       82.3642   56.3551   36.5674 dc         1 CLA      0.058300
     78 HED3       79.4390   52.8111   34.9544 dc         1 CLA      0.079300
     79 HED2       78.1081   51.8108   35.7682 dc         1 CLA      0.079300
     80 HED1       77.8703   52.6415   34.0507 dc         1 CLA      0.079300
     81 HBC3       73.0592   56.0315   41.8803 dc         1 CLA      0.016300
     82 HBC2       73.6953   55.9720   43.4771 dc         1 CLA      0.016300
     83 HBC1       71.9367   56.2412   43.3018 dc         1 CLA      0.016300
     84 HBB2       79.9795   62.2739   45.2054 da         1 CLA      0.183000
     85 HBB1       79.0784   60.8077   44.3855 da         1 CLA      0.183000
     86 HBA2       80.7874   58.9139   32.6845 dc         1 CLA      0.029400
     87 HBA1       81.9173   58.7850   34.0299 dc         1 CLA      0.029400
     88 HAC2       73.0383   58.3113   43.9147 dc         1 CLA      0.029300
     89 HAC1       72.0344   58.3198   42.5232 dc         1 CLA      0.029300
     90 HAA2       78.9968   57.7434   33.8560 dc         1 CLA      0.028700
     91 HAA1       79.4946   59.2096   34.6260 dc         1 CLA      0.028700
     92 H203       85.3685   58.1127   47.2585 dc         1 CLA      0.065600
     93 H202       86.2281   57.7364   48.7255 dc         1 CLA      0.065600
     94 H201       86.4095   59.2720   48.1101 dc         1 CLA      0.065600
     95 H193       88.9727   58.5021   48.3600 dc         1 CLA      0.065600
     96 H192       88.4620   56.7303   48.4691 dc         1 CLA      0.065600
     97 H191       89.6862   57.2850   47.1699 dc         1 CLA      0.065600
     98 H172       88.1933   59.9629   46.3046 dc         1 CLA      0.027600
     99 H171       86.8905   59.2886   45.4401 dc         1 CLA      0.027600
    100 H162       89.5779   58.0344   45.1761 dc         1 CLA      0.002900
    101 H161       89.2105   59.4964   44.1727 dc         1 CLA      0.002900
    102 H152       87.3433   58.2007   43.1432 dc         1 CLA      0.029100
    103 H151       87.6825   56.8348   44.0580 dc         1 CLA      0.029100
    104 H143       90.9196   55.8451   42.3343 dc         1 CLA      0.063600
    105 H142       90.9704   56.8321   43.7911 dc         1 CLA      0.063600
    106 H141       89.9737   55.3592   43.6868 dc         1 CLA      0.063600
    107 H122       87.3766   56.7421   41.4047 dc         1 CLA      0.032500
    108 H121       87.9345   55.2643   42.1037 dc         1 CLA      0.032500
    109 H112       89.6587   55.0952   40.2632 dc         1 CLA      0.006600
    110 H111       89.3740   56.7678   39.9580 dc         1 CLA      0.006600
    111 H102       87.0576   56.1647   39.0875 dc         1 CLA      0.024100
    112 H101       87.4243   54.5116   39.6633 dc         1 CLA      0.024100
    113 HHD        73.0313   57.5034   40.0394 da         1 CLA      0.174300
    114 HHC        77.3353   60.9496   43.1229 da         1 CLA      0.136800
    115 HHB        81.7291   59.9076   38.5517 da         1 CLA      0.138300
    116 HBD        76.9393   56.7343   34.1811 dc         1 CLA      0.107700
    117 HAB        80.6557   62.9641   42.8488 da         1 CLA      0.155200
    118 H93        89.1986   53.2634   36.8482 dc         1 CLA      0.069500
    119 H92        89.6782   53.3467   38.6437 dc         1 CLA      0.069500
    120 H91        88.1074   52.9309   38.0938 dc         1 CLA      0.069500
    121 H8         89.4108   55.5923   37.7463 dc         1 CLA      0.029300
    122 H72        88.2971   55.5091   35.6816 dc         1 CLA      0.044400
    123 H71        87.1394   56.3754   36.6874 dc         1 CLA      0.044400
    124 H62        86.1166   54.2120   37.1648 dc         1 CLA      0.015600
    125 H61        86.9368   53.4464   35.8417 dc         1 CLA      0.015600
    126 H52        85.8768   54.8966   34.2238 dc         1 CLA      0.033200
    127 H51        85.0431   55.6893   35.5894 dc         1 CLA      0.033200
    128 H43        84.7515   51.6122   34.4700 dc         1 CLA      0.037000
    129 H42        84.3328   52.5059   33.1011 dc         1 CLA      0.037000
    130 H41        86.0095   52.8008   33.7820 dc         1 CLA      0.037000
    131 H3A        81.5209   58.8883   36.1782 dc         1 CLA      0.041100
    132 H2A        80.1174   56.3890   35.5997 dc         1 CLA      0.083100
    133 H2         82.4609   53.7954   35.7136 da         1 CLA      0.180900
    134 H18        87.2762   57.0123   46.3767 dc         1 CLA     -0.003900
    135 H13        89.6164   57.8452   41.9078 dc         1 CLA      0.019700
    136 H12        81.5554   54.1644   33.6855 dc         1 CLA      0.120400
    137 H11        83.1180   54.7892   32.9754 dc         1 CLA      0.120400
    138 C1         69.8176   61.8276   49.8892 Z1         2 LUT      0.509236
    139 C2         68.5437   61.6563   50.6912 Z2         2 LUT     -0.434695
    140 C3         67.6856   62.9357   51.0365 Z3         2 LUT      0.437453
    141 O3         67.9073   63.1893   52.3977 S1         2 LUT     -0.547129
    142 C4         68.0537   64.0923   50.1464 Z4         2 LUT     -0.468603
    143 C5         68.6156   63.7729   48.8131 Z5         2 LUT      0.279246
    144 C6         69.5031   62.7495   48.6407 Z6         2 LUT     -0.305473
    145 C7         69.6380   62.2093   47.2684 Z7         2 LUT      0.069402
    146 C8         70.7500   62.7146   46.6464 Z8         2 LUT     -0.191631
    147 C9         71.2977   62.3097   45.3034 Z9         2 LUT      0.196698
    148 C10        72.4344   62.8716   44.8481 Y1         2 LUT     -0.208611
    149 C11        73.0749   62.6951   43.6677 Y2         2 LUT      0.030784
    150 C12        74.2600   63.2566   43.3133 Y3         2 LUT     -0.220316
    151 C13        74.8886   63.0320   42.0941 Y4         2 LUT      0.215937
    152 C14        76.0217   63.8520   41.9586 Y5         2 LUT     -0.185793
    153 C15        77.0286   63.8031   41.0230 Y6         2 LUT     -0.057835
    154 C16        70.4418   60.4019   49.4338 Y7         2 LUT     -0.405615
    155 C17        70.6814   62.4512   51.0100 Y7         2 LUT     -0.405615
    156 C18        68.0472   64.5709   47.6755 Y9         2 LUT     -0.369639
    157 C19        70.6933   61.0599   44.6424 W1         2 LUT     -0.333362
    158 C20        74.3038   62.3747   40.9253 W2         2 LUT     -0.323439
    159 C21        88.5850   65.0501   35.2402 Z1         2 LUT      0.406104
    160 C22        88.9942   64.2195   33.9349 Z2         2 LUT     -0.404965
    161 C23        89.1947   65.1574   32.7752 Z3         2 LUT      0.391255
    162 O23        89.4477   64.3092   31.6006 S1         2 LUT     -0.528210
    163 C24        87.9706   66.0179   32.5939 W6         2 LUT     -0.258361
    164 C25        86.9677   66.2368   33.4726 Z5         2 LUT      0.133546
    165 C26        87.0482   65.6127   34.8727 W8         2 LUT     -0.147008
    166 C27        86.3448   66.2926   35.9865 Z7         2 LUT      0.023843
    167 C28        85.3031   65.7602   36.6876 Z8         2 LUT     -0.216987
    168 C29        84.6226   66.2630   37.8736 Z9         2 LUT      0.206524
    169 C30        83.6042   65.4393   38.3699 Y1         2 LUT     -0.215556
    170 C31        82.7522   65.6192   39.4585 Y2         2 LUT      0.025142
    171 C32        81.5491   64.9952   39.4875 Y3         2 LUT     -0.212209
    172 C33        80.5054   65.0853   40.4994 Y4         2 LUT      0.240937
    173 C34        79.3297   64.3922   40.3401 Y5         2 LUT     -0.218862
    174 C35        78.2064   64.4712   41.2048 Y6         2 LUT     -0.023547
    175 C36        89.5216   66.1961   35.4671 Y7         2 LUT     -0.393485
    176 C37        88.6023   64.0885   36.4548 Y7         2 LUT     -0.393485
    177 C38        85.6611   67.0175   33.2024 Y9         2 LUT     -0.387526
    178 C39        84.8858   67.6601   38.4923 W1         2 LUT     -0.322618
    179 C40        80.7428   66.0074   41.6630 W2         2 LUT     -0.358472
    180 H403       80.6211   67.0011   41.2518 R7         2 LUT      0.097720
    181 H402       79.9670   66.0222   42.4217 R7         2 LUT      0.097720
    182 H401       81.7513   65.9698   42.1235 R7         2 LUT      0.097720
    183 H393       84.8950   67.5526   39.6212 R4         2 LUT      0.082505
    184 H392       85.8902   68.0037   38.1546 R4         2 LUT      0.082505
    185 H391       84.0229   68.2890   38.2244 R4         2 LUT      0.082505
    186 H383       84.7365   66.6280   33.6059 R1         2 LUT      0.104030
    187 H382       85.7812   68.0754   33.4655 R1         2 LUT      0.104030
    188 H381       85.6239   67.0988   32.0574 R1         2 LUT      0.104030
    189 H373       88.2141   64.5429   37.3134 T4         2 LUT      0.089537
    190 H372       87.9507   63.3062   36.1466 T4         2 LUT      0.089537
    191 H371       89.4878   63.7950   36.7870 T4         2 LUT      0.089537
    192 H363       89.3404   66.6204   36.4375 T4         2 LUT      0.089537
    193 H362       90.5436   65.8004   35.5692 T4         2 LUT      0.089537
    194 H361       89.5670   67.0715   34.7724 T4         2 LUT      0.089537
    195 H222       89.9802   63.7081   34.0518 U2         2 LUT      0.127376
    196 H221       88.2918   63.4892   33.5605 U2         2 LUT      0.127376
    197 H203       75.0337   62.2067   40.2105 R7         2 LUT      0.087068
    198 H202       73.7347   61.4766   41.0268 R7         2 LUT      0.087068
    199 H201       73.5912   63.0402   40.5513 R7         2 LUT      0.087068
    200 H193       70.2319   61.3499   43.7024 R4         2 LUT      0.089716
    201 H192       71.4369   60.2606   44.4027 R4         2 LUT      0.089716
    202 H191       69.8828   60.6827   45.1394 R4         2 LUT      0.089716
    203 H183       68.6462   65.5094   47.4834 R1         2 LUT      0.094572
    204 H182       68.0411   64.0496   46.6522 R1         2 LUT      0.094572
    205 H181       67.0064   64.8483   47.8976 R1         2 LUT      0.094572
    206 H173       71.0005   61.6654   51.7968 T4         2 LUT      0.093752
    207 H172       71.6506   62.8779   50.5691 T4         2 LUT      0.093752
    208 H171       70.1248   63.2438   51.4748 T4         2 LUT      0.093752
    209 H163       71.1502   60.6217   48.6630 T4         2 LUT      0.093752
    210 H162       70.9638   59.8011   50.1579 T4         2 LUT      0.093752
    211 H161       69.7386   59.7695   48.8998 T4         2 LUT      0.093752
    212 HO3        67.3613   62.5622   52.9284 Q1         2 LUT      0.300121
    213 H8         71.2634   63.5532   47.0639 U7         2 LUT      0.080784
    214 H7         68.9336   61.4892   46.9665 U6         2 LUT      0.042190
    215 H42        67.1037   64.6656   50.1596 U5         2 LUT      0.145166
    216 H41        68.7053   64.7462   50.7065 U5         2 LUT      0.145166
    217 H35        78.1714   65.1201   42.1056 T3         2 LUT      0.077919
    218 H34        79.3566   63.7603   39.4885 T2         2 LUT      0.073626
    219 H32        81.3538   64.2789   38.6869 T1         2 LUT      0.092510
    220 H31        83.0578   66.3686   40.2104 U9         2 LUT      0.070048
    221 H30        83.3717   64.5136   37.7997 U8         2 LUT      0.085442
    222 H3         66.6457   62.7600   50.7181 U3         2 LUT     -0.031596
    223 H28        85.0247   64.7544   36.3419 U7         2 LUT      0.084728
    224 H27        86.7008   67.1815   36.4587 U6         2 LUT      0.087291
    225 H26        86.3595   64.7823   34.6815 Q6         2 LUT      0.075325
    226 H24        87.9261   66.5355   31.6114 Q5         2 LUT      0.094482
    227 H23        90.0733   65.7583   33.0373 U3         2 LUT     -0.024869
    228 H22        67.8933   61.0576   50.0183 U2         2 LUT      0.127376
    229 H21        68.6222   60.9480   51.5600 U2         2 LUT      0.127376
    230 H15        77.0698   63.1416   40.1999 T3         2 LUT      0.093200
    231 H14        76.2100   64.5011   42.8216 T2         2 LUT      0.068865
    232 H12        74.6432   64.0544   43.9619 T1         2 LUT      0.095507
    233 H11        72.5929   61.9435   43.0754 U9         2 LUT      0.068930
    234 H10        72.8675   63.6381   45.4512 U8         2 LUT      0.083911
    235 H1         90.1961   64.6307   31.0544 Q1         2 LUT      0.297311
@<TRIPOS>BOND
    1     6     1 1
    2     7     2 1
    3     8     3 1
    4     9     4 1
    5    11     4 1
    6    12     6 1
    7    13     9 1
    8    16     9 1
    9    25     5 1
   10    25    16 1
   11    26    10 1
   12    26    17 1
   13    27    18 1
   14    28    14 1
   15    28    19 1
   16    29    12 1
   17    30    13 1
   18    31    24 1
   19    32     1 1
   20    32    25 1
   21    33    21 1
   22    33    26 1
   23    34    22 1
   24    34    27 1
   25    35    23 1
   26    35    28 1
   27    36    12 1
   28    36    24 1
   29    37    13 1
   30    37    15 1
   31    38    31 1
   32    39    20 1
   33    39    32 1
   34    40     2 1
   35    40    33 1
   36    41     3 1
   37    41    34 1
   38    42     4 1
   39    42    35 1
   40    43    38 1
   41    44     5 1
   42    44    17 1
   43    44    39 1
   44    45    10 1
   45    45    18 1
   46    45    40 1
   47    46    19 1
   48    46    41 1
   49    47    14 1
   50    47    16 1
   51    47    42 1
   52    48    38 1
   53    49    48 1
   54    50    49 1
   55    51    50 1
   56    52    51 1
   57    53    51 1
   58    54    53 1
   59    55    54 1
   60    56    55 1
   61    57    56 1
   62    58    56 1
   63    59    58 1
   64    60    59 1
   65    61    60 1
   66    62    61 1
   67    63    61 1
   68    64    27 1
   69    64    46 1
   70    65     5 1
   71    65    10 1
   72    65    64 1
   73    65    14 1
   74    66    23 1
   75    67    23 1
   76    68    23 1
   77    69    22 1
   78    70    22 1
   79    71    22 1
   80    72    21 1
   81    73    21 1
   82    74    21 1
   83    75    20 1
   84    76    20 1
   85    77    20 1
   86    78    15 1
   87    79    15 1
   88    80    15 1
   89    81     8 1
   90    82     8 1
   91    83     8 1
   92    84     7 1
   93    85     7 1
   94    86     6 1
   95    87     6 1
   96    88     3 1
   97    89     3 1
   98    90     1 1
   99    91     1 1
  100    92    63 1
  101    93    63 1
  102    94    63 1
  103    95    62 1
  104    96    62 1
  105    97    62 1
  106    98    60 1
  107    99    60 1
  108   100    59 1
  109   101    59 1
  110   102    58 1
  111   103    58 1
  112   104    57 1
  113   105    57 1
  114   106    57 1
  115   107    55 1
  116   108    55 1
  117   109    54 1
  118   110    54 1
  119   111    53 1
  120   112    53 1
  121   113    19 1
  122   114    18 1
  123   115    17 1
  124   116     9 1
  125   117     2 1
  126   118    52 1
  127   119    52 1
  128   120    52 1
  129   121    51 1
  130   122    50 1
  131   123    50 1
  132   124    49 1
  133   125    49 1
  134   126    48 1
  135   127    48 1
  136   128    43 1
  137   129    43 1
  138   130    43 1
  139   131    39 1
  140   132    32 1
  141   133    31 1
  142   134    61 1
  143   135    56 1
  144   136    24 1
  145   137    24 1
  146   139   138 1
  147   140   139 1
  148   141   140 1
  149   142   140 1
  150   143   142 1
  151   144   138 1
  152   144   143 1
  153   145   144 1
  154   146   145 1
  155   147   146 1
  156   148   147 1
  157   149   148 1
  158   150   149 1
  159   151   150 1
  160   152   151 1
  161   153   152 1
  162   154   138 1
  163   155   138 1
  164   156   143 1
  165   157   147 1
  166   158   151 1
  167   160   159 1
  168   161   160 1
  169   162   161 1
  170   163   161 1
  171   164   163 1
  172   165   159 1
  173   165   164 1
  174   166   165 1
  175   167   166 1
  176   168   167 1
  177   169   168 1
  178   170   169 1
  179   171   170 1
  180   172   171 1
  181   173   172 1
  182   174   153 1
  183   174   173 1
  184   175   159 1
  185   176   159 1
  186   177   164 1
  187   178   168 1
  188   179   172 1
  189   180   179 1
  190   181   179 1
  191   182   179 1
  192   183   178 1
  193   184   178 1
  194   185   178 1
  195   186   177 1
  196   187   177 1
  197   188   177 1
  198   189   176 1
  199   190   176 1
  200   191   176 1
  201   192   175 1
  202   193   175 1
  203   194   175 1
  204   195   160 1
  205   196   160 1
  206   197   158 1
  207   198   158 1
  208   199   158 1
  209   200   157 1
  210   201   157 1
  211   202   157 1
  212   203   156 1
  213   204   156 1
  214   205   156 1
  215   206   155 1
  216   207   155 1
  217   208   155 1
  218   209   154 1
  219   210   154 1
  220   211   154 1
  221   212   141 1
  222   213   146 1
  223   214   145 1
  224   215   142 1
  225   216   142 1
  226   217   174 1
  227   218   173 1
  228   219   171 1
  229   220   170 1
  230   221   169 1
  231   222   140 1
  232   223   167 1
  233   224   166 1
  234   225   165 1
  235   226   163 1
  236   227   161 1
  237   228   139 1
  238   229   139 1
  239   230   153 1
  240   231   152 1
  241   232   150 1
  242   233   149 1
  243   234   148 1
  244   235   162 1
  245   65    153 1
  246   65    174 1
@<TRIPOS>SUBSTRUCTURE
      1 CLA               1 ****               0 ****  **** 
      2 LUT             138 ****               0 ****  **** 
