@<TRIPOS>MOLECULE
Cpptraj generated mol2 file.
  235   246     2     0     0
SMALL
USER_CHARGES


@<TRIPOS>ATOM
      1 CAA        78.4940   57.7991   35.4834 a2         1 CLA     -0.055900
      2 CAB        77.7570   61.1873   44.6275 c8         1 CLA     -0.148500
      3 CAC        71.2004   56.8545   43.6673 a2         1 CLA     -0.012600
      4 CAD        74.3778   55.0693   36.2687 ck         1 CLA      0.398800
      5 NA         77.3874   58.0218   38.8274 ns         1 CLA     -0.225500
      6 CBA        79.8725   57.8293   34.6991 a2         1 CLA     -0.135000
      7 CBB        78.6577   61.0863   45.5970 c0         1 CLA     -0.395200
      8 CBC        71.3124   55.2619   43.5300 a3         1 CLA     -0.037700
      9 CBD        75.8471   55.6733   36.1170 a1         1 CLA     -0.053900
     10 NB         77.0300   59.3585   41.4239 nm         1 CLA     -0.295700
     11 OBD        73.8348   54.3232   35.4514 o2         1 CLA     -0.494600
     12 CGA        80.5234   56.3898   34.3791 c4         1 CLA      0.827000
     13 CGD        76.8793   54.5714   35.9536 c4         1 CLA      0.655300
     14 ND         74.5338   56.9756   39.2920 nm         1 CLA     -0.291600
     15 CED        77.4177   52.3693   36.6840 a3         1 CLA      0.005400
     16 CHA        76.1641   56.5383   37.3764 cs         1 CLA     -0.123800
     17 CHB        78.9870   59.4590   39.9514 aa         1 CLA     -0.291900
     18 CHC        75.5494   59.5131   43.4622 aa         1 CLA     -0.090400
     19 CHD        72.5316   56.8837   40.7641 aa         1 CLA     -0.052000
     20 CMA        80.8602   57.7488   38.2252 a3         1 CLA     -0.230700
     21 CMB        80.2087   61.2783   42.4142 a3         1 CLA     -0.180800
     22 CMC        72.9951   58.9552   45.3964 a3         1 CLA     -0.134000
     23 CMD        71.4458   55.0330   38.3707 a3         1 CLA     -0.141100
     24 C1         81.4890   54.4120   35.5356 a2         1 CLA      0.023000
     25 C1A        77.3259   57.2481   37.7169 ac         1 CLA     -0.015100
     26 C1B        78.3543   59.7491   41.1533 cr         1 CLA      0.054700
     27 C1C        74.4588   58.6943   43.1423 cn         1 CLA     -0.005600
     28 C1D        73.2727   56.5392   39.6208 ap         1 CLA     -0.047300
     29 O1A        80.6382   55.8552   33.2409 o2         1 CLA     -0.610800
     30 O1D        77.8111   54.5275   35.1661 o2         1 CLA     -0.558200
     31 C2         81.3229   53.8528   36.8777 c8         1 CLA     -0.325100
     32 C2A        78.6424   57.3187   36.9268 a1         1 CLA      0.098600
     33 C2B        78.8414   60.5689   42.2909 cb         1 CLA      0.088500
     34 C2C        73.2229   58.4585   44.0153 cb         1 CLA      0.053700
     35 C2D        72.8649   55.6258   38.5101 cb         1 CLA      0.058900
     36 O2A        80.9581   55.7881   35.6240 o1         1 CLA     -0.437200
     37 O2D        76.6701   53.6125   36.8472 o1         1 CLA     -0.357600
     38 C3         82.0732   52.8929   37.4254 c5         1 CLA      0.031200
     39 C3A        79.4963   58.2288   37.8371 a1         1 CLA      0.166800
     40 C3B        77.8304   60.5891   43.3081 cb         1 CLA      0.035000
     41 C3C        72.3838   57.6126   43.2235 cb         1 CLA     -0.089900
     42 C3D        73.9171   55.5564   37.5398 cb         1 CLA     -0.035900
     43 C4         81.6089   51.5150   37.3195 a3         1 CLA     -0.053300
     44 C4A        78.5699   58.5961   38.9495 ac         1 CLA      0.001800
     45 C4B        76.7235   59.8383   42.6962 cn         1 CLA     -0.020900
     46 C4C        73.0737   57.5295   41.9218 cr         1 CLA     -0.044400
     47 C4D        74.9346   56.4556   38.1057 c6         1 CLA     -0.046000
     48 C5         83.1567   53.1911   38.4450 a2         1 CLA     -0.070400
     49 C6         83.9623   54.4425   38.3078 a2         1 CLA      0.043900
     50 C7         84.1836   55.1587   39.7142 a2         1 CLA     -0.150000
     51 C8         84.8382   56.6133   39.4719 a1         1 CLA      0.064200
     52 C9         86.2300   56.4290   38.7303 a3         1 CLA     -0.259300
     53 C10        84.9415   57.2965   40.8751 a2         1 CLA     -0.071900
     54 C11        83.7141   57.9210   41.4656 a2         1 CLA      0.014500
     55 C12        84.0348   58.6499   42.8311 a2         1 CLA     -0.112100
     56 C13        84.5135   57.8071   44.0028 a1         1 CLA      0.089200
     57 C14        83.8447   56.4436   44.3500 a3         1 CLA     -0.239100
     58 C15        84.7101   58.6268   45.2832 a2         1 CLA     -0.102200
     59 C16        83.4750   59.3642   45.8901 a2         1 CLA      0.023900
     60 C17        83.9179   60.1570   47.1232 a2         1 CLA     -0.105700
     61 C18        82.8326   61.1337   47.6964 a1         1 CLA      0.206800
     62 C19        81.6742   60.4338   48.2683 a3         1 CLA     -0.280100
     63 C20        83.4907   62.1057   48.7738 a3         1 CLA     -0.280100
     64 NC         74.3109   58.0631   41.9528 nx         1 CLA     -0.309200
     65 MG         75.8080   58.2275   40.3012 mg         1 CLA      0.895000
     66 HMD3       71.3735   54.2279   39.1452 dc         1 CLA      0.064300
     67 HMD2       70.6992   55.7764   38.4658 dc         1 CLA      0.064300
     68 HMD1       71.4863   54.6574   37.3707 dc         1 CLA      0.064300
     69 HMC3       72.1579   59.6777   45.5424 dc         1 CLA      0.052100
     70 HMC2       72.7985   58.1337   46.1289 dc         1 CLA      0.052100
     71 HMC1       73.9616   59.4209   45.7898 dc         1 CLA      0.052100
     72 HMB3       81.0030   60.6667   42.7900 dc         1 CLA      0.063600
     73 HMB2       80.3655   61.8339   41.4803 dc         1 CLA      0.063600
     74 HMB1       79.9558   62.0969   43.1590 dc         1 CLA      0.063600
     75 HMA3       81.3297   58.4843   38.9560 dc         1 CLA      0.058300
     76 HMA2       80.9580   56.7516   38.6515 dc         1 CLA      0.058300
     77 HMA1       81.5084   57.7860   37.3082 dc         1 CLA      0.058300
     78 HED3       77.3579   51.9505   35.7089 dc         1 CLA      0.079300
     79 HED2       78.5238   52.5627   36.8236 dc         1 CLA      0.079300
     80 HED1       76.9744   51.6151   37.4104 dc         1 CLA      0.079300
     81 HBC3       71.8016   54.9576   44.4898 dc         1 CLA      0.016300
     82 HBC2       70.3799   54.7174   43.4164 dc         1 CLA      0.016300
     83 HBC1       71.9195   55.0625   42.6599 dc         1 CLA      0.016300
     84 HBB2       78.5979   61.5958   46.5632 da         1 CLA      0.183000
     85 HBB1       79.6429   60.5274   45.4229 da         1 CLA      0.183000
     86 HBA2       79.6828   58.1480   33.5994 dc         1 CLA      0.029400
     87 HBA1       80.5006   58.5513   35.1325 dc         1 CLA      0.029400
     88 HAC2       70.9003   57.1726   44.6605 dc         1 CLA      0.029300
     89 HAC1       70.2738   57.0639   43.0717 dc         1 CLA      0.029300
     90 HAA2       77.8523   57.0033   34.9505 dc         1 CLA      0.028700
     91 HAA1       78.1485   58.8287   35.5232 dc         1 CLA      0.028700
     92 H203       84.0050   61.4420   49.5043 dc         1 CLA      0.065600
     93 H202       84.2691   62.6933   48.2936 dc         1 CLA      0.065600
     94 H201       82.8605   62.8187   49.3484 dc         1 CLA      0.065600
     95 H193       80.9345   61.1481   48.4897 dc         1 CLA      0.065600
     96 H192       81.2974   59.7763   47.4916 dc         1 CLA      0.065600
     97 H191       81.9035   59.9320   49.1772 dc         1 CLA      0.065600
     98 H172       84.1711   59.2879   47.7046 dc         1 CLA      0.027600
     99 H171       84.8457   60.7686   46.9574 dc         1 CLA      0.027600
    100 H162       83.1463   60.1237   45.1919 dc         1 CLA      0.002900
    101 H161       82.5952   58.6354   45.9542 dc         1 CLA      0.002900
    102 H152       85.2095   57.9795   46.0310 dc         1 CLA      0.029100
    103 H151       85.4366   59.4279   45.0320 dc         1 CLA      0.029100
    104 H143       83.5093   55.8657   43.4882 dc         1 CLA      0.063600
    105 H142       84.5382   55.8926   44.9136 dc         1 CLA      0.063600
    106 H141       83.0632   56.6233   45.0605 dc         1 CLA      0.063600
    107 H122       84.7539   59.4193   42.5513 dc         1 CLA      0.032500
    108 H121       83.0737   59.2305   43.1064 dc         1 CLA      0.032500
    109 H112       83.3419   58.5982   40.6928 dc         1 CLA      0.006600
    110 H111       83.0240   57.0683   41.7085 dc         1 CLA      0.006600
    111 H102       85.3448   56.5888   41.5910 dc         1 CLA      0.024100
    112 H101       85.6329   58.0705   41.0158 dc         1 CLA      0.024100
    113 HHD        71.5193   56.4684   40.7877 da         1 CLA      0.174300
    114 HHC        75.5776   59.9913   44.4600 da         1 CLA      0.136800
    115 HHB        79.9887   59.8255   39.9524 da         1 CLA      0.138300
    116 HBD        75.9716   56.2742   35.1728 dc         1 CLA      0.107700
    117 HAB        76.7781   61.7164   44.7823 da         1 CLA      0.155200
    118 H93        86.6753   57.4708   38.6781 dc         1 CLA      0.069500
    119 H92        86.9687   55.8551   39.3414 dc         1 CLA      0.069500
    120 H91        86.1983   55.9612   37.7614 dc         1 CLA      0.069500
    121 H8         84.1632   57.1941   38.8579 dc         1 CLA      0.029300
    122 H72        83.1899   55.3424   40.1836 dc         1 CLA      0.044400
    123 H71        84.7444   54.5487   40.4630 dc         1 CLA      0.044400
    124 H62        84.8713   54.0643   37.8242 dc         1 CLA      0.015600
    125 H61        83.5848   55.0815   37.5460 dc         1 CLA      0.015600
    126 H52        82.7254   53.2498   39.3976 dc         1 CLA      0.033200
    127 H51        83.8707   52.3781   38.3852 dc         1 CLA      0.033200
    128 H43        81.9451   50.9388   38.2211 dc         1 CLA      0.037000
    129 H42        80.4887   51.5819   37.3059 dc         1 CLA      0.037000
    130 H41        82.0882   51.0172   36.4616 dc         1 CLA      0.037000
    131 H3A        79.7852   59.1261   37.2869 dc         1 CLA      0.041100
    132 H2A        78.9829   56.2723   36.9574 dc         1 CLA      0.083100
    133 H2         80.4443   54.1392   37.4704 da         1 CLA      0.180900
    134 H18        82.3357   61.7172   46.9346 dc         1 CLA     -0.003900
    135 H13        85.5193   57.4976   43.7631 dc         1 CLA      0.019700
    136 H12        80.8308   53.7990   34.8779 dc         1 CLA      0.120400
    137 H11        82.4909   54.4798   35.1898 dc         1 CLA      0.120400
    138 C1         67.9225   60.4607   50.9571 Z1         2 LUT      0.509236
    139 C2         66.5122   60.3823   51.6932 Z2         2 LUT     -0.434695
    140 C3         65.8328   61.7237   51.9423 Z3         2 LUT      0.437453
    141 O3         66.0308   62.3135   53.2607 S1         2 LUT     -0.547129
    142 C4         66.2179   62.8427   50.9323 Z4         2 LUT     -0.468603
    143 C5         66.9644   62.4445   49.7307 Z5         2 LUT      0.279246
    144 C6         67.7933   61.3647   49.6926 Z6         2 LUT     -0.305473
    145 C7         68.2026   60.7332   48.4176 Z7         2 LUT      0.069402
    146 C8         68.8468   61.4690   47.4422 Z8         2 LUT     -0.191631
    147 C9         69.5656   61.0678   46.2389 Z9         2 LUT      0.196698
    148 C10        70.4890   61.8900   45.7204 Y1         2 LUT     -0.208611
    149 C11        71.2167   61.7355   44.5134 Y2         2 LUT      0.030784
    150 C12        72.3596   62.4980   44.1545 Y3         2 LUT     -0.220316
    151 C13        73.1725   62.3381   42.9507 Y4         2 LUT      0.215937
    152 C14        74.3239   63.0974   42.8202 Y5         2 LUT     -0.185793
    153 C15        75.3857   63.0218   41.7860 Y6         2 LUT     -0.057835
    154 C16        68.3132   58.9105   50.8022 Y7         2 LUT     -0.405615
    155 C17        68.9001   60.9768   52.0298 Y7         2 LUT     -0.405615
    156 C18        66.3415   63.1850   48.5164 Y9         2 LUT     -0.369639
    157 C19        69.0601   59.8577   45.5985 W1         2 LUT     -0.333362
    158 C20        72.6843   61.5507   41.7187 W2         2 LUT     -0.323439
    159 C21        87.2985   65.3099   36.1831 Z1         2 LUT      0.406104
    160 C22        87.9147   64.6712   34.8499 Z2         2 LUT     -0.404965
    161 C23        88.0684   65.7094   33.6960 Z3         2 LUT      0.391255
    162 O23        88.3553   64.8306   32.5957 S1         2 LUT     -0.528210
    163 C24        86.6753   66.2479   33.4544 W6         2 LUT     -0.258361
    164 C25        85.6891   66.3601   34.3572 Z5         2 LUT      0.133546
    165 C26        85.8111   65.5920   35.6493 W8         2 LUT     -0.147008
    166 C27        84.9700   66.0539   36.8131 Z7         2 LUT      0.023843
    167 C28        83.7716   65.4931   37.2097 Z8         2 LUT     -0.216987
    168 C29        82.9340   65.8395   38.4719 Z9         2 LUT      0.206524
    169 C30        81.7999   65.0902   38.7061 Y1         2 LUT     -0.215556
    170 C31        80.8322   65.2546   39.7470 Y2         2 LUT      0.025142
    171 C32        79.6886   64.5788   39.9299 Y3         2 LUT     -0.212209
    172 C33        78.7655   64.5444   41.0735 Y4         2 LUT      0.240937
    173 C34        77.7095   63.7186   41.0825 Y5         2 LUT     -0.218862
    174 C35        76.5867   63.6685   42.0103 Y6         2 LUT     -0.023547
    175 C36        88.1748   66.4012   36.7271 Y7         2 LUT     -0.393485
    176 C37        87.2960   64.0906   37.2440 Y7         2 LUT     -0.393485
    177 C38        84.3532   67.0420   34.0899 Y9         2 LUT     -0.387526
    178 C39        83.5268   66.7866   39.4709 W1         2 LUT     -0.322618
    179 C40        79.1111   65.6119   42.1400 W2         2 LUT     -0.358472
    180 H403       78.4114   65.5887   42.9392 R7         2 LUT      0.097720
    181 H402       80.0134   65.4994   42.6426 R7         2 LUT      0.097720
    182 H401       79.0657   66.6475   41.7860 R7         2 LUT      0.097720
    183 H393       82.7889   67.0957   40.2168 R4         2 LUT      0.082505
    184 H392       84.4225   66.5036   40.0888 R4         2 LUT      0.082505
    185 H391       83.9557   67.6626   39.0265 R4         2 LUT      0.082505
    186 H383       83.7078   66.2636   33.7985 R1         2 LUT      0.104030
    187 H382       83.9750   67.4743   34.9754 R1         2 LUT      0.104030
    188 H381       84.2814   67.7174   33.2259 R1         2 LUT      0.104030
    189 H373       88.2926   63.6669   37.3641 T4         2 LUT      0.089537
    190 H372       86.8127   64.2876   38.2133 T4         2 LUT      0.089537
    191 H371       86.7222   63.2321   36.8189 T4         2 LUT      0.089537
    192 H363       88.2595   67.2002   36.0487 T4         2 LUT      0.089537
    193 H362       87.8409   66.7394   37.6795 T4         2 LUT      0.089537
    194 H361       89.2398   66.1209   36.7999 T4         2 LUT      0.089537
    195 H222       88.8265   64.1577   35.0942 U2         2 LUT      0.127376
    196 H221       87.2783   63.8479   34.4643 U2         2 LUT      0.127376
    197 H203       72.9120   60.5058   41.6566 R7         2 LUT      0.087068
    198 H202       71.7162   61.7674   41.4866 R7         2 LUT      0.087068
    199 H201       73.1240   61.8778   40.7737 R7         2 LUT      0.087068
    200 H193       68.0299   59.7916   45.7511 R4         2 LUT      0.089716
    201 H192       69.3374   59.7776   44.5029 R4         2 LUT      0.089716
    202 H191       69.5165   58.9313   45.9875 R4         2 LUT      0.089716
    203 H183       65.3356   63.5972   48.7416 R1         2 LUT      0.094572
    204 H182       66.9888   63.9601   48.1784 R1         2 LUT      0.094572
    205 H181       66.2866   62.4240   47.7020 R1         2 LUT      0.094572
    206 H173       69.9657   60.7436   51.6436 T4         2 LUT      0.093752
    207 H172       68.7237   62.0776   52.1767 T4         2 LUT      0.093752
    208 H171       68.8206   60.4991   53.0147 T4         2 LUT      0.093752
    209 H163       68.4658   58.4307   51.7499 T4         2 LUT      0.093752
    210 H162       67.4810   58.3468   50.3321 T4         2 LUT      0.093752
    211 H161       69.2208   58.7464   50.1317 T4         2 LUT      0.093752
    212 HO3        65.6710   61.6935   53.9327 Q1         2 LUT      0.300121
    213 H8         69.0060   62.5759   47.6061 U7         2 LUT      0.080784
    214 H7         68.2382   59.6038   48.4096 U6         2 LUT      0.042190
    215 H42        65.2769   63.3448   50.6849 U5         2 LUT      0.145166
    216 H41        66.6645   63.6490   51.4412 U5         2 LUT      0.145166
    217 H35        76.6547   64.2378   42.9620 T3         2 LUT      0.077919
    218 H34        77.6474   63.0680   40.1756 T2         2 LUT      0.073626
    219 H32        79.2955   63.9121   39.1818 T1         2 LUT      0.092510
    220 H31        81.2586   65.7362   40.6053 U9         2 LUT      0.070048
    221 H30        81.4036   64.4383   37.9052 U8         2 LUT      0.085442
    222 H3         64.7946   61.4990   51.7784 U3         2 LUT     -0.031596
    223 H28        83.3474   64.7028   36.6265 U7         2 LUT      0.084728
    224 H27        85.4221   66.9145   37.4227 U6         2 LUT      0.087291
    225 H26        85.4424   64.5466   35.3789 Q6         2 LUT      0.075325
    226 H24        86.5164   66.6615   32.4517 Q5         2 LUT      0.094482
    227 H23        88.7502   66.5158   33.9877 U3         2 LUT     -0.024869
    228 H22        65.7564   59.8593   51.0803 U2         2 LUT      0.127376
    229 H21        66.6724   59.9192   52.6768 U2         2 LUT      0.127376
    230 H15        75.2804   62.5069   40.8741 T3         2 LUT      0.093200
    231 H14        74.7519   63.7420   43.5268 T2         2 LUT      0.068865
    232 H12        72.7658   63.2062   44.8270 T1         2 LUT      0.095507
    233 H11        71.0222   60.9595   43.8032 U9         2 LUT      0.068930
    234 H10        70.8201   62.8369   46.1531 U8         2 LUT      0.083911
    235 H1         88.7674   65.3798   31.8330 Q1         2 LUT      0.297311
@<TRIPOS>BOND
    1     6     1 1
    2     7     2 1
    3     8     3 1
    4     9     4 1
    5    11     4 1
    6    12     6 1
    7    13     9 1
    8    16     9 1
    9    25     5 1
   10    25    16 1
   11    26    10 1
   12    26    17 1
   13    27    18 1
   14    28    14 1
   15    28    19 1
   16    29    12 1
   17    30    13 1
   18    31    24 1
   19    32     1 1
   20    32    25 1
   21    33    21 1
   22    33    26 1
   23    34    22 1
   24    34    27 1
   25    35    23 1
   26    35    28 1
   27    36    12 1
   28    36    24 1
   29    37    13 1
   30    37    15 1
   31    38    31 1
   32    39    20 1
   33    39    32 1
   34    40     2 1
   35    40    33 1
   36    41     3 1
   37    41    34 1
   38    42     4 1
   39    42    35 1
   40    43    38 1
   41    44     5 1
   42    44    17 1
   43    44    39 1
   44    45    10 1
   45    45    18 1
   46    45    40 1
   47    46    19 1
   48    46    41 1
   49    47    14 1
   50    47    16 1
   51    47    42 1
   52    48    38 1
   53    49    48 1
   54    50    49 1
   55    51    50 1
   56    52    51 1
   57    53    51 1
   58    54    53 1
   59    55    54 1
   60    56    55 1
   61    57    56 1
   62    58    56 1
   63    59    58 1
   64    60    59 1
   65    61    60 1
   66    62    61 1
   67    63    61 1
   68    64    27 1
   69    64    46 1
   70    65     5 1
   71    65    10 1
   72    65    64 1
   73    65    14 1
   74    66    23 1
   75    67    23 1
   76    68    23 1
   77    69    22 1
   78    70    22 1
   79    71    22 1
   80    72    21 1
   81    73    21 1
   82    74    21 1
   83    75    20 1
   84    76    20 1
   85    77    20 1
   86    78    15 1
   87    79    15 1
   88    80    15 1
   89    81     8 1
   90    82     8 1
   91    83     8 1
   92    84     7 1
   93    85     7 1
   94    86     6 1
   95    87     6 1
   96    88     3 1
   97    89     3 1
   98    90     1 1
   99    91     1 1
  100    92    63 1
  101    93    63 1
  102    94    63 1
  103    95    62 1
  104    96    62 1
  105    97    62 1
  106    98    60 1
  107    99    60 1
  108   100    59 1
  109   101    59 1
  110   102    58 1
  111   103    58 1
  112   104    57 1
  113   105    57 1
  114   106    57 1
  115   107    55 1
  116   108    55 1
  117   109    54 1
  118   110    54 1
  119   111    53 1
  120   112    53 1
  121   113    19 1
  122   114    18 1
  123   115    17 1
  124   116     9 1
  125   117     2 1
  126   118    52 1
  127   119    52 1
  128   120    52 1
  129   121    51 1
  130   122    50 1
  131   123    50 1
  132   124    49 1
  133   125    49 1
  134   126    48 1
  135   127    48 1
  136   128    43 1
  137   129    43 1
  138   130    43 1
  139   131    39 1
  140   132    32 1
  141   133    31 1
  142   134    61 1
  143   135    56 1
  144   136    24 1
  145   137    24 1
  146   139   138 1
  147   140   139 1
  148   141   140 1
  149   142   140 1
  150   143   142 1
  151   144   138 1
  152   144   143 1
  153   145   144 1
  154   146   145 1
  155   147   146 1
  156   148   147 1
  157   149   148 1
  158   150   149 1
  159   151   150 1
  160   152   151 1
  161   153   152 1
  162   154   138 1
  163   155   138 1
  164   156   143 1
  165   157   147 1
  166   158   151 1
  167   160   159 1
  168   161   160 1
  169   162   161 1
  170   163   161 1
  171   164   163 1
  172   165   159 1
  173   165   164 1
  174   166   165 1
  175   167   166 1
  176   168   167 1
  177   169   168 1
  178   170   169 1
  179   171   170 1
  180   172   171 1
  181   173   172 1
  182   174   153 1
  183   174   173 1
  184   175   159 1
  185   176   159 1
  186   177   164 1
  187   178   168 1
  188   179   172 1
  189   180   179 1
  190   181   179 1
  191   182   179 1
  192   183   178 1
  193   184   178 1
  194   185   178 1
  195   186   177 1
  196   187   177 1
  197   188   177 1
  198   189   176 1
  199   190   176 1
  200   191   176 1
  201   192   175 1
  202   193   175 1
  203   194   175 1
  204   195   160 1
  205   196   160 1
  206   197   158 1
  207   198   158 1
  208   199   158 1
  209   200   157 1
  210   201   157 1
  211   202   157 1
  212   203   156 1
  213   204   156 1
  214   205   156 1
  215   206   155 1
  216   207   155 1
  217   208   155 1
  218   209   154 1
  219   210   154 1
  220   211   154 1
  221   212   141 1
  222   213   146 1
  223   214   145 1
  224   215   142 1
  225   216   142 1
  226   217   174 1
  227   218   173 1
  228   219   171 1
  229   220   170 1
  230   221   169 1
  231   222   140 1
  232   223   167 1
  233   224   166 1
  234   225   165 1
  235   226   163 1
  236   227   161 1
  237   228   139 1
  238   229   139 1
  239   230   153 1
  240   231   152 1
  241   232   150 1
  242   233   149 1
  243   234   148 1
  244   235   162 1
  245   65    153 1
  246   65    174 1
@<TRIPOS>SUBSTRUCTURE
      1 CLA               1 ****               0 ****  **** 
      2 LUT             138 ****               0 ****  **** 
