@<TRIPOS>MOLECULE
Cpptraj generated mol2 file.
  235   246     2     0     0
SMALL
USER_CHARGES


@<TRIPOS>ATOM
      1 CAA        78.7573   58.1499   34.8505 a2         1 CLA     -0.055900
      2 CAB        77.9310   61.7295   43.9318 c8         1 CLA     -0.148500
      3 CAC        71.3966   56.9228   43.1965 a2         1 CLA     -0.012600
      4 CAD        74.6876   55.2881   35.7742 ck         1 CLA      0.398800
      5 NA         77.5214   58.3506   38.2600 ns         1 CLA     -0.225500
      6 CBA        80.1229   58.1150   34.1065 a2         1 CLA     -0.135000
      7 CBB        78.5004   62.9533   44.1468 c0         1 CLA     -0.395200
      8 CBC        71.6458   55.3950   43.5820 a3         1 CLA     -0.037700
      9 CBD        76.1061   55.8552   35.5790 a1         1 CLA     -0.053900
     10 NB         77.1374   59.7215   40.8901 nm         1 CLA     -0.295700
     11 OBD        74.1533   54.5728   34.8901 o2         1 CLA     -0.494600
     12 CGA        80.8127   56.7037   33.9279 c4         1 CLA      0.827000
     13 CGD        77.1035   54.6954   35.4193 c4         1 CLA      0.655300
     14 ND         74.7241   57.2789   38.6906 nm         1 CLA     -0.291600
     15 CED        78.1507   52.7060   36.2616 a3         1 CLA      0.005400
     16 CHA        76.3520   56.7681   36.7697 cs         1 CLA     -0.123800
     17 CHB        79.2935   59.6514   39.5181 aa         1 CLA     -0.291900
     18 CHC        75.6695   59.9397   42.8625 aa         1 CLA     -0.090400
     19 CHD        73.0098   56.6658   40.2788 aa         1 CLA     -0.052000
     20 CMA        80.9677   57.7645   37.7137 a3         1 CLA     -0.230700
     21 CMB        80.4188   61.3789   41.7426 a3         1 CLA     -0.180800
     22 CMC        73.1950   58.9798   44.8713 a3         1 CLA     -0.134000
     23 CMD        72.0183   54.7089   37.9907 a3         1 CLA     -0.141100
     24 C1         82.7613   55.4677   34.5615 a2         1 CLA      0.023000
     25 C1A        77.4898   57.6401   37.0650 ac         1 CLA     -0.015100
     26 C1B        78.4851   60.0346   40.6254 cr         1 CLA      0.054700
     27 C1C        74.5038   59.1552   42.4387 cn         1 CLA     -0.005600
     28 C1D        73.6146   56.5243   39.0615 ap         1 CLA     -0.047300
     29 O1A        80.4338   55.7840   33.1714 o2         1 CLA     -0.610800
     30 O1D        77.9928   54.7296   34.5877 o2         1 CLA     -0.558200
     31 C2         82.0771   54.5249   35.4735 c8         1 CLA     -0.325100
     32 C2A        78.8845   57.7054   36.2849 a1         1 CLA      0.098600
     33 C2B        78.9928   60.8641   41.6974 cb         1 CLA      0.088500
     34 C2C        73.3718   58.6256   43.3034 cb         1 CLA      0.053700
     35 C2D        73.1989   55.5889   38.0033 cb         1 CLA      0.058900
     36 O2A        82.0235   56.7027   34.5152 o1         1 CLA     -0.437200
     37 O2D        77.0357   53.6546   36.3920 o1         1 CLA     -0.357600
     38 C3         82.5980   53.7853   36.4398 c5         1 CLA      0.031200
     39 C3A        79.7143   58.5517   37.2655 a1         1 CLA      0.166800
     40 C3B        77.8630   61.1011   42.5782 cb         1 CLA      0.035000
     41 C3C        72.6453   57.6162   42.6225 cb         1 CLA     -0.089900
     42 C3D        74.2104   55.7254   37.0550 cb         1 CLA     -0.035900
     43 C4         83.1494   52.3737   36.2896 a3         1 CLA     -0.053300
     44 C4A        78.8153   58.8697   38.4820 ac         1 CLA      0.001800
     45 C4B        76.8403   60.2517   42.1424 cn         1 CLA     -0.020900
     46 C4C        73.2881   57.6058   41.2978 cr         1 CLA     -0.044400
     47 C4D        75.1692   56.6639   37.5414 c6         1 CLA     -0.046000
     48 C5         82.9273   54.3887   37.7922 a2         1 CLA     -0.070400
     49 C6         84.2610   55.1295   38.0230 a2         1 CLA      0.043900
     50 C7         84.2185   55.9481   39.2876 a2         1 CLA     -0.150000
     51 C8         85.4971   56.6949   39.6519 a1         1 CLA      0.064200
     52 C9         86.7706   55.7762   39.7434 a3         1 CLA     -0.259300
     53 C10        85.4087   57.4037   40.9698 a2         1 CLA     -0.071900
     54 C11        84.0188   57.9101   41.3362 a2         1 CLA      0.014500
     55 C12        84.0057   58.7562   42.6490 a2         1 CLA     -0.112100
     56 C13        84.2798   58.0309   44.0173 a1         1 CLA      0.089200
     57 C14        83.2817   56.9109   44.3423 a3         1 CLA     -0.239100
     58 C15        84.8141   59.0701   45.1449 a2         1 CLA     -0.102200
     59 C16        83.8113   60.1721   45.4702 a2         1 CLA      0.023900
     60 C17        84.4255   61.2351   46.4789 a2         1 CLA     -0.105700
     61 C18        83.5964   62.3786   47.0205 a1         1 CLA      0.206800
     62 C19        82.4081   61.8475   47.7995 a3         1 CLA     -0.280100
     63 C20        84.4161   63.3871   47.8615 a3         1 CLA     -0.280100
     64 NC         74.4241   58.4366   41.2767 nx         1 CLA     -0.309200
     65 MG         75.8357   58.5756   39.7477 mg         1 CLA      0.895000
     66 HMD3       71.2022   55.3282   37.5441 dc         1 CLA      0.064300
     67 HMD2       72.1954   53.8769   37.2869 dc         1 CLA      0.064300
     68 HMD1       71.7894   54.3370   38.9849 dc         1 CLA      0.064300
     69 HMC3       73.1374   58.0792   45.4316 dc         1 CLA      0.052100
     70 HMC2       74.0613   59.5891   45.0911 dc         1 CLA      0.052100
     71 HMC1       72.3111   59.5601   45.1146 dc         1 CLA      0.052100
     72 HMB3       81.0674   60.5479   41.9280 dc         1 CLA      0.063600
     73 HMB2       80.6183   61.9010   40.7656 dc         1 CLA      0.063600
     74 HMB1       80.5811   62.1325   42.5745 dc         1 CLA      0.063600
     75 HMA3       81.9156   58.2836   38.0139 dc         1 CLA      0.058300
     76 HMA2       80.6404   56.9844   38.4094 dc         1 CLA      0.058300
     77 HMA1       81.3266   57.2244   36.8194 dc         1 CLA      0.058300
     78 HED3       77.9903   52.0542   37.0725 dc         1 CLA      0.079300
     79 HED2       78.0240   52.1079   35.3002 dc         1 CLA      0.079300
     80 HED1       79.1530   53.1777   36.3544 dc         1 CLA      0.079300
     81 HBC3       71.9306   54.9253   42.6839 dc         1 CLA      0.016300
     82 HBC2       72.5135   55.3246   44.2822 dc         1 CLA      0.016300
     83 HBC1       70.6595   55.0658   43.9185 dc         1 CLA      0.016300
     84 HBB2       78.4141   63.3947   45.1347 da         1 CLA      0.183000
     85 HBB1       78.9792   63.5375   43.3270 da         1 CLA      0.183000
     86 HBA2       79.8431   58.5344   33.1218 dc         1 CLA      0.029400
     87 HBA1       80.8522   58.7808   34.5898 dc         1 CLA      0.029400
     88 HAC2       71.1406   57.5011   44.1057 dc         1 CLA      0.029300
     89 HAC1       70.6744   56.9695   42.4309 dc         1 CLA      0.029300
     90 HAA2       78.1202   57.5513   34.2902 dc         1 CLA      0.028700
     91 HAA1       78.3076   59.1845   34.9163 dc         1 CLA      0.028700
     92 H203       83.7081   64.1426   48.1419 dc         1 CLA      0.065600
     93 H202       84.9183   62.9134   48.6932 dc         1 CLA      0.065600
     94 H201       85.1833   63.8140   47.1863 dc         1 CLA      0.065600
     95 H193       81.8276   62.7111   48.1442 dc         1 CLA      0.065600
     96 H192       81.6662   61.2361   47.2912 dc         1 CLA      0.065600
     97 H191       82.6381   61.3431   48.7390 dc         1 CLA      0.065600
     98 H172       84.8464   60.7234   47.3732 dc         1 CLA      0.027600
     99 H171       85.3268   61.6400   46.0415 dc         1 CLA      0.027600
    100 H162       83.4458   60.6557   44.5719 dc         1 CLA      0.002900
    101 H161       82.9051   59.7722   45.9522 dc         1 CLA      0.002900
    102 H152       84.9330   58.5881   46.1701 dc         1 CLA      0.029100
    103 H151       85.7122   59.4522   44.6507 dc         1 CLA      0.029100
    104 H143       82.2680   57.0174   44.5251 dc         1 CLA      0.063600
    105 H142       83.4055   55.9671   43.7732 dc         1 CLA      0.063600
    106 H141       83.5319   56.5694   45.3792 dc         1 CLA      0.063600
    107 H122       84.6636   59.5899   42.5033 dc         1 CLA      0.032500
    108 H121       82.9249   59.1070   42.7827 dc         1 CLA      0.032500
    109 H112       83.7319   58.6043   40.5787 dc         1 CLA      0.006600
    110 H111       83.1614   57.2176   41.3442 dc         1 CLA      0.006600
    111 H102       85.6293   56.6848   41.7845 dc         1 CLA      0.024100
    112 H101       86.0456   58.2964   40.8164 dc         1 CLA      0.024100
    113 HHD        72.0881   56.0901   40.3539 da         1 CLA      0.174300
    114 HHC        75.5959   60.3646   43.8079 da         1 CLA      0.136800
    115 HHB        80.2489   60.1795   39.5259 da         1 CLA      0.138300
    116 HBD        76.2399   56.4469   34.7347 dc         1 CLA      0.107700
    117 HAB        77.4434   61.2664   44.7482 da         1 CLA      0.155200
    118 H93        87.0523   55.3547   38.7292 dc         1 CLA      0.069500
    119 H92        87.6396   56.3862   40.0937 dc         1 CLA      0.069500
    120 H91        86.5844   55.0246   40.5166 dc         1 CLA      0.069500
    121 H8         85.6727   57.4230   38.8416 dc         1 CLA      0.029300
    122 H72        83.3437   56.5422   39.1923 dc         1 CLA      0.044400
    123 H71        84.0789   55.1974   40.1472 dc         1 CLA      0.044400
    124 H62        85.0431   54.2637   38.0875 dc         1 CLA      0.015600
    125 H61        84.4455   55.8189   37.2086 dc         1 CLA      0.015600
    126 H52        82.1412   55.1210   37.8982 dc         1 CLA      0.033200
    127 H51        82.8349   53.5947   38.5504 dc         1 CLA      0.033200
    128 H43        82.9390   51.9114   35.3560 dc         1 CLA      0.037000
    129 H42        84.2326   52.3567   36.4607 dc         1 CLA      0.037000
    130 H41        82.7496   51.7082   37.0270 dc         1 CLA      0.037000
    131 H3A        80.0145   59.4697   36.7348 dc         1 CLA      0.041100
    132 H2A        79.1251   56.6222   36.2144 dc         1 CLA      0.083100
    133 H2         81.0326   54.4943   35.5002 da         1 CLA      0.180900
    134 H18        83.2527   62.9620   46.2249 dc         1 CLA     -0.003900
    135 H13        85.1404   57.3664   43.7521 dc         1 CLA      0.019700
    136 H12        82.8375   54.8417   33.6581 dc         1 CLA      0.120400
    137 H11        83.7488   55.7089   34.9538 dc         1 CLA      0.120400
    138 C1         68.7588   61.2099   50.3099 Z1         2 LUT      0.509236
    139 C2         67.4306   60.9558   51.0284 Z2         2 LUT     -0.434695
    140 C3         66.5249   62.1079   51.4560 Z3         2 LUT      0.437453
    141 O3         66.4422   62.3121   52.8230 S1         2 LUT     -0.547129
    142 C4         66.8026   63.3277   50.6316 Z4         2 LUT     -0.468603
    143 C5         67.4160   62.9928   49.2528 Z5         2 LUT      0.279246
    144 C6         68.5015   62.1496   49.1136 Z6         2 LUT     -0.305473
    145 C7         68.9128   61.6502   47.8963 Z7         2 LUT      0.069402
    146 C8         69.9987   62.1414   47.2020 Z8         2 LUT     -0.191631
    147 C9         70.3555   61.7032   45.8218 Z9         2 LUT      0.196698
    148 C10        71.3625   62.4794   45.2350 Y1         2 LUT     -0.208611
    149 C11        71.7495   62.4882   43.8672 Y2         2 LUT      0.030784
    150 C12        72.8811   63.0839   43.4233 Y3         2 LUT     -0.220316
    151 C13        73.6442   63.0924   42.1485 Y4         2 LUT      0.215937
    152 C14        74.8447   63.7743   42.1042 Y5         2 LUT     -0.185793
    153 C15        75.9242   63.5928   41.1419 Y6         2 LUT     -0.057835
    154 C16        69.3360   59.7695   50.1858 Y7         2 LUT     -0.405615
    155 C17        69.6414   61.8724   51.3734 Y7         2 LUT     -0.405615
    156 C18        66.4461   63.3727   48.1168 Y9         2 LUT     -0.369639
    157 C19        69.5982   60.6674   45.1180 W1         2 LUT     -0.333362
    158 C20        73.1209   62.1390   41.0863 W2         2 LUT     -0.323439
    159 C21        87.5881   64.8967   35.2003 Z1         2 LUT      0.406104
    160 C22        88.4762   64.6857   33.9870 Z2         2 LUT     -0.404965
    161 C23        88.3637   65.8000   32.9851 Z3         2 LUT      0.391255
    162 O23        89.1216   65.2913   31.8839 S1         2 LUT     -0.528210
    163 C24        86.9595   66.1978   32.6588 W6         2 LUT     -0.258361
    164 C25        85.9018   65.9768   33.4562 Z5         2 LUT      0.133546
    165 C26        86.0896   65.1855   34.7027 W8         2 LUT     -0.147008
    166 C27        85.2460   65.7456   35.7792 Z7         2 LUT      0.023843
    167 C28        83.9978   65.4199   36.1357 Z8         2 LUT     -0.216987
    168 C29        83.1969   65.9824   37.2063 Z9         2 LUT      0.206524
    169 C30        82.0699   65.3172   37.6965 Y1         2 LUT     -0.215556
    170 C31        81.2184   65.6292   38.8504 Y2         2 LUT      0.025142
    171 C32        80.2097   64.8131   39.1796 Y3         2 LUT     -0.212209
    172 C33        79.4268   64.8364   40.3748 Y4         2 LUT      0.240937
    173 C34        78.2474   64.1197   40.3414 Y5         2 LUT     -0.218862
    174 C35        77.1246   64.2040   41.2941 Y6         2 LUT     -0.023547
    175 C36        88.2834   66.0365   36.0763 Y7         2 LUT     -0.393485
    176 C37        87.8709   63.6491   35.9893 Y7         2 LUT     -0.393485
    177 C38        84.5332   66.5957   33.1503 Y9         2 LUT     -0.387526
    178 C39        83.6561   67.2568   37.8183 W1         2 LUT     -0.322618
    179 C40        79.9001   65.6578   41.5708 W2         2 LUT     -0.358472
    180 H403       80.6539   65.0976   42.2131 R7         2 LUT      0.097720
    181 H402       80.3052   66.6097   41.3069 R7         2 LUT      0.097720
    182 H401       79.1152   65.8664   42.2632 R7         2 LUT      0.097720
    183 H393       83.6000   68.1688   37.2144 R4         2 LUT      0.082505
    184 H392       83.2011   67.4958   38.7752 R4         2 LUT      0.082505
    185 H391       84.7517   67.1682   37.9859 R4         2 LUT      0.082505
    186 H383       83.9966   66.9520   34.0318 R1         2 LUT      0.104030
    187 H382       84.6925   67.4670   32.4631 R1         2 LUT      0.104030
    188 H381       83.7739   65.9289   32.7080 R1         2 LUT      0.104030
    189 H373       87.3798   62.8571   35.5250 T4         2 LUT      0.089537
    190 H372       88.8895   63.3610   36.1875 T4         2 LUT      0.089537
    191 H371       87.3365   63.6715   37.0228 T4         2 LUT      0.089537
    192 H363       89.3645   65.7849   36.2121 T4         2 LUT      0.089537
    193 H362       88.1397   66.9550   35.4255 T4         2 LUT      0.089537
    194 H361       87.8413   66.3309   37.0268 T4         2 LUT      0.089537
    195 H222       89.5448   64.4842   34.0917 U2         2 LUT      0.127376
    196 H221       88.0979   63.7640   33.5016 U2         2 LUT      0.127376
    197 H203       72.2610   62.4538   40.4971 R7         2 LUT      0.087068
    198 H202       73.8930   61.7587   40.4531 R7         2 LUT      0.087068
    199 H201       72.8666   61.1640   41.5422 R7         2 LUT      0.087068
    200 H193       70.1124   60.3982   44.2245 R4         2 LUT      0.089716
    201 H192       69.5722   59.7561   45.7352 R4         2 LUT      0.089716
    202 H191       68.6253   60.9692   44.7226 R4         2 LUT      0.089716
    203 H183       66.4158   62.4494   47.4854 R1         2 LUT      0.094572
    204 H182       65.4142   63.5374   48.3951 R1         2 LUT      0.094572
    205 H181       66.6522   64.2892   47.4922 R1         2 LUT      0.094572
    206 H173       69.3288   62.8808   51.7359 T4         2 LUT      0.093752
    207 H172       69.7581   61.3207   52.2996 T4         2 LUT      0.093752
    208 H171       70.6797   61.9153   50.9693 T4         2 LUT      0.093752
    209 H163       68.7814   59.1084   49.5455 T4         2 LUT      0.093752
    210 H162       70.2743   59.8857   49.5994 T4         2 LUT      0.093752
    211 H161       69.5521   59.3049   51.1734 T4         2 LUT      0.093752
    212 HO3        67.3002   62.5404   53.2462 Q1         2 LUT      0.300121
    213 H8         70.6281   62.8600   47.6682 U7         2 LUT      0.080784
    214 H7         68.2386   60.9742   47.4890 U6         2 LUT      0.042190
    215 H42        65.8719   63.8709   50.4980 U5         2 LUT      0.145166
    216 H41        67.5571   63.9971   51.0450 U5         2 LUT      0.145166
    217 H35        77.2440   64.7017   42.2543 T3         2 LUT      0.077919
    218 H34        78.0392   63.4564   39.4882 T2         2 LUT      0.073626
    219 H32        79.9841   64.0486   38.4170 T1         2 LUT      0.092510
    220 H31        81.5221   66.3850   39.5401 U9         2 LUT      0.070048
    221 H30        81.8062   64.4240   37.1739 U8         2 LUT      0.085442
    222 H3         65.5494   61.7246   51.2705 U3         2 LUT     -0.031596
    223 H28        83.4687   64.5200   35.7818 U7         2 LUT      0.084728
    224 H27        85.7623   66.5850   36.2620 U6         2 LUT      0.087291
    225 H26        85.6022   64.2041   34.5522 Q6         2 LUT      0.075325
    226 H24        86.8512   66.8723   31.7938 Q5         2 LUT      0.094482
    227 H23        88.9362   66.5599   33.4723 U3         2 LUT     -0.024869
    228 H22        66.8339   60.4619   50.2869 U2         2 LUT      0.127376
    229 H21        67.5432   60.3102   51.8744 U2         2 LUT      0.127376
    230 H15        75.6931   63.0540   40.2784 T3         2 LUT      0.093200
    231 H14        75.3018   64.2141   42.9907 T2         2 LUT      0.068865
    232 H12        73.4665   63.6109   44.2185 T1         2 LUT      0.095507
    233 H11        71.2085   61.9769   43.1401 U9         2 LUT      0.068930
    234 H10        71.8454   63.2460   45.9005 U8         2 LUT      0.083911
    235 H1         88.5474   64.9938   31.2208 Q1         2 LUT      0.297311
@<TRIPOS>BOND
    1     6     1 1
    2     7     2 1
    3     8     3 1
    4     9     4 1
    5    11     4 1
    6    12     6 1
    7    13     9 1
    8    16     9 1
    9    25     5 1
   10    25    16 1
   11    26    10 1
   12    26    17 1
   13    27    18 1
   14    28    14 1
   15    28    19 1
   16    29    12 1
   17    30    13 1
   18    31    24 1
   19    32     1 1
   20    32    25 1
   21    33    21 1
   22    33    26 1
   23    34    22 1
   24    34    27 1
   25    35    23 1
   26    35    28 1
   27    36    12 1
   28    36    24 1
   29    37    13 1
   30    37    15 1
   31    38    31 1
   32    39    20 1
   33    39    32 1
   34    40     2 1
   35    40    33 1
   36    41     3 1
   37    41    34 1
   38    42     4 1
   39    42    35 1
   40    43    38 1
   41    44     5 1
   42    44    17 1
   43    44    39 1
   44    45    10 1
   45    45    18 1
   46    45    40 1
   47    46    19 1
   48    46    41 1
   49    47    14 1
   50    47    16 1
   51    47    42 1
   52    48    38 1
   53    49    48 1
   54    50    49 1
   55    51    50 1
   56    52    51 1
   57    53    51 1
   58    54    53 1
   59    55    54 1
   60    56    55 1
   61    57    56 1
   62    58    56 1
   63    59    58 1
   64    60    59 1
   65    61    60 1
   66    62    61 1
   67    63    61 1
   68    64    27 1
   69    64    46 1
   70    65     5 1
   71    65    10 1
   72    65    64 1
   73    65    14 1
   74    66    23 1
   75    67    23 1
   76    68    23 1
   77    69    22 1
   78    70    22 1
   79    71    22 1
   80    72    21 1
   81    73    21 1
   82    74    21 1
   83    75    20 1
   84    76    20 1
   85    77    20 1
   86    78    15 1
   87    79    15 1
   88    80    15 1
   89    81     8 1
   90    82     8 1
   91    83     8 1
   92    84     7 1
   93    85     7 1
   94    86     6 1
   95    87     6 1
   96    88     3 1
   97    89     3 1
   98    90     1 1
   99    91     1 1
  100    92    63 1
  101    93    63 1
  102    94    63 1
  103    95    62 1
  104    96    62 1
  105    97    62 1
  106    98    60 1
  107    99    60 1
  108   100    59 1
  109   101    59 1
  110   102    58 1
  111   103    58 1
  112   104    57 1
  113   105    57 1
  114   106    57 1
  115   107    55 1
  116   108    55 1
  117   109    54 1
  118   110    54 1
  119   111    53 1
  120   112    53 1
  121   113    19 1
  122   114    18 1
  123   115    17 1
  124   116     9 1
  125   117     2 1
  126   118    52 1
  127   119    52 1
  128   120    52 1
  129   121    51 1
  130   122    50 1
  131   123    50 1
  132   124    49 1
  133   125    49 1
  134   126    48 1
  135   127    48 1
  136   128    43 1
  137   129    43 1
  138   130    43 1
  139   131    39 1
  140   132    32 1
  141   133    31 1
  142   134    61 1
  143   135    56 1
  144   136    24 1
  145   137    24 1
  146   139   138 1
  147   140   139 1
  148   141   140 1
  149   142   140 1
  150   143   142 1
  151   144   138 1
  152   144   143 1
  153   145   144 1
  154   146   145 1
  155   147   146 1
  156   148   147 1
  157   149   148 1
  158   150   149 1
  159   151   150 1
  160   152   151 1
  161   153   152 1
  162   154   138 1
  163   155   138 1
  164   156   143 1
  165   157   147 1
  166   158   151 1
  167   160   159 1
  168   161   160 1
  169   162   161 1
  170   163   161 1
  171   164   163 1
  172   165   159 1
  173   165   164 1
  174   166   165 1
  175   167   166 1
  176   168   167 1
  177   169   168 1
  178   170   169 1
  179   171   170 1
  180   172   171 1
  181   173   172 1
  182   174   153 1
  183   174   173 1
  184   175   159 1
  185   176   159 1
  186   177   164 1
  187   178   168 1
  188   179   172 1
  189   180   179 1
  190   181   179 1
  191   182   179 1
  192   183   178 1
  193   184   178 1
  194   185   178 1
  195   186   177 1
  196   187   177 1
  197   188   177 1
  198   189   176 1
  199   190   176 1
  200   191   176 1
  201   192   175 1
  202   193   175 1
  203   194   175 1
  204   195   160 1
  205   196   160 1
  206   197   158 1
  207   198   158 1
  208   199   158 1
  209   200   157 1
  210   201   157 1
  211   202   157 1
  212   203   156 1
  213   204   156 1
  214   205   156 1
  215   206   155 1
  216   207   155 1
  217   208   155 1
  218   209   154 1
  219   210   154 1
  220   211   154 1
  221   212   141 1
  222   213   146 1
  223   214   145 1
  224   215   142 1
  225   216   142 1
  226   217   174 1
  227   218   173 1
  228   219   171 1
  229   220   170 1
  230   221   169 1
  231   222   140 1
  232   223   167 1
  233   224   166 1
  234   225   165 1
  235   226   163 1
  236   227   161 1
  237   228   139 1
  238   229   139 1
  239   230   153 1
  240   231   152 1
  241   232   150 1
  242   233   149 1
  243   234   148 1
  244   235   162 1
  245   65    153 1
  246   65    174 1
@<TRIPOS>SUBSTRUCTURE
      1 CLA               1 ****               0 ****  **** 
      2 LUT             138 ****               0 ****  **** 
