@<TRIPOS>MOLECULE
Cpptraj generated mol2 file.
  235   246     2     0     0
SMALL
USER_CHARGES


@<TRIPOS>ATOM
      1 CAA        77.4919   57.2172   32.9482 a2         1 CLA     -0.055900
      2 CAB        77.6351   61.1747   41.8779 c8         1 CLA     -0.148500
      3 CAC        70.7190   56.7700   41.5455 a2         1 CLA     -0.012600
      4 CAD        73.3902   54.5054   34.1561 ck         1 CLA      0.398800
      5 NA         76.5690   57.4928   36.3607 ns         1 CLA     -0.225500
      6 CBA        78.7258   57.1985   32.0411 a2         1 CLA     -0.135000
      7 CBB        78.8046   61.3100   42.5230 c0         1 CLA     -0.395200
      8 CBC        70.8531   55.3163   41.8187 a3         1 CLA     -0.037700
      9 CBD        74.9616   54.9614   33.9254 a1         1 CLA     -0.053900
     10 NB         76.3894   59.1393   38.8772 nm         1 CLA     -0.295700
     11 OBD        72.8331   53.7370   33.4317 o2         1 CLA     -0.494600
     12 CGA        79.1482   55.8323   31.5987 c4         1 CLA      0.827000
     13 CGD        75.8821   53.7950   34.1405 c4         1 CLA      0.655300
     14 ND         73.7161   56.6544   36.9512 nm         1 CLA     -0.291600
     15 CED        76.4819   51.8824   35.4934 a3         1 CLA      0.005400
     16 CHA        75.2126   55.9845   35.0084 cs         1 CLA     -0.123800
     17 CHB        78.3585   58.8650   37.4322 aa         1 CLA     -0.291900
     18 CHC        75.1003   59.2667   40.9302 aa         1 CLA     -0.090400
     19 CHD        71.9433   56.4920   38.6193 aa         1 CLA     -0.052000
     20 CMA        79.8927   56.6284   35.8958 a3         1 CLA     -0.230700
     21 CMB        79.7083   60.6756   39.4333 a3         1 CLA     -0.180800
     22 CMC        72.8371   58.5945   43.1430 a3         1 CLA     -0.134000
     23 CMD        70.5698   54.6012   36.3488 a3         1 CLA     -0.141100
     24 C1         80.4512   53.9625   32.5444 a2         1 CLA      0.023000
     25 C1A        76.3978   56.7352   35.2124 ac         1 CLA     -0.015100
     26 C1B        77.6776   59.4227   38.5664 cr         1 CLA      0.054700
     27 C1C        73.9739   58.5296   40.6824 cn         1 CLA     -0.005600
     28 C1D        72.4613   56.1087   37.3610 ap         1 CLA     -0.047300
     29 O1A        78.6569   55.0863   30.7493 o2         1 CLA     -0.610800
     30 O1D        76.7848   53.5090   33.3735 o2         1 CLA     -0.558200
     31 C2         81.2311   53.8132   33.8062 c8         1 CLA     -0.325100
     32 C2A        77.6735   56.6249   34.3728 a1         1 CLA      0.098600
     33 C2B        78.2917   60.3017   39.5157 cb         1 CLA      0.088500
     34 C2C        72.9001   58.1357   41.6974 cb         1 CLA      0.053700
     35 C2D        71.9612   55.1776   36.3219 cb         1 CLA      0.058900
     36 O2A        80.0530   55.4171   32.5379 o1         1 CLA     -0.437200
     37 O2D        75.7259   53.2054   35.3708 o1         1 CLA     -0.357600
     38 C3         81.7704   52.7645   34.4712 c5         1 CLA      0.031200
     39 C3A        78.7490   57.4536   35.2787 a1         1 CLA      0.166800
     40 C3B        77.4329   60.4781   40.5911 cb         1 CLA      0.035000
     41 C3C        71.9690   57.3675   40.9765 cb         1 CLA     -0.089900
     42 C3D        72.9730   55.1522   35.3726 cb         1 CLA     -0.035900
     43 C4         81.0358   51.9858   35.4699 a3         1 CLA     -0.053300
     44 C4A        77.8561   58.0141   36.4140 ac         1 CLA      0.001800
     45 C4B        76.2504   59.5757   40.1596 cn         1 CLA     -0.020900
     46 C4C        72.4986   57.2562   39.6021 cr         1 CLA     -0.044400
     47 C4D        74.0211   55.9905   35.8015 c6         1 CLA     -0.046000
     48 C5         83.1963   52.3158   34.1434 a2         1 CLA     -0.070400
     49 C6         84.2211   53.3257   34.6875 a2         1 CLA      0.043900
     50 C7         84.1058   53.3953   36.1981 a2         1 CLA     -0.150000
     51 C8         84.9391   54.5134   36.8787 a1         1 CLA      0.064200
     52 C9         86.5202   54.3464   36.6157 a3         1 CLA     -0.259300
     53 C10        84.5942   54.6762   38.3988 a2         1 CLA     -0.071900
     54 C11        83.1220   55.0492   38.7819 a2         1 CLA      0.014500
     55 C12        83.0488   55.3517   40.2460 a2         1 CLA     -0.112100
     56 C13        81.5867   55.5313   40.8779 a1         1 CLA      0.089200
     57 C14        80.6365   56.3394   40.0224 a3         1 CLA     -0.239100
     58 C15        81.6964   55.9518   42.3797 a2         1 CLA     -0.102200
     59 C16        82.1797   57.3835   42.6230 a2         1 CLA      0.023900
     60 C17        81.8756   57.9265   44.0526 a2         1 CLA     -0.105700
     61 C18        82.2161   59.4693   44.2332 a1         1 CLA      0.206800
     62 C19        81.5814   60.0458   45.4712 a3         1 CLA     -0.280100
     63 C20        83.7147   59.7984   44.0695 a3         1 CLA     -0.280100
     64 NC         73.6871   57.9467   39.4620 nx         1 CLA     -0.309200
     65 MG         74.9756   57.9378   37.8006 mg         1 CLA      0.895000
     66 HMD3       70.4606   54.1237   35.4032 dc         1 CLA      0.064300
     67 HMD2       70.4169   53.8721   37.1565 dc         1 CLA      0.064300
     68 HMD1       69.7875   55.3422   36.5321 dc         1 CLA      0.064300
     69 HMC3       73.3070   57.7986   43.6880 dc         1 CLA      0.052100
     70 HMC2       73.3608   59.6218   43.2362 dc         1 CLA      0.052100
     71 HMC1       71.7346   58.6487   43.4326 dc         1 CLA      0.052100
     72 HMB3       80.0081   61.3450   40.2043 dc         1 CLA      0.063600
     73 HMB2       80.3673   59.8163   39.4079 dc         1 CLA      0.063600
     74 HMB1       79.8701   61.1513   38.4598 dc         1 CLA      0.063600
     75 HMA3       80.4423   57.3217   36.5670 dc         1 CLA      0.058300
     76 HMA2       79.4919   55.8305   36.5186 dc         1 CLA      0.058300
     77 HMA1       80.5462   56.2331   35.1805 dc         1 CLA      0.058300
     78 HED3       76.2175   51.3839   36.4104 dc         1 CLA      0.079300
     79 HED2       76.3871   51.1918   34.6216 dc         1 CLA      0.079300
     80 HED1       77.5167   52.2001   35.5497 dc         1 CLA      0.079300
     81 HBC3       69.8528   55.0365   42.2176 dc         1 CLA      0.016300
     82 HBC2       71.1220   54.6968   40.9345 dc         1 CLA      0.016300
     83 HBC1       71.7252   55.2604   42.5310 dc         1 CLA      0.016300
     84 HBB2       78.9742   61.8158   43.4404 da         1 CLA      0.183000
     85 HBB1       79.7404   60.8311   42.1902 da         1 CLA      0.183000
     86 HBA2       78.5324   57.7425   31.1069 dc         1 CLA      0.029400
     87 HBA1       79.5487   57.7151   32.5457 dc         1 CLA      0.029400
     88 HAC2       70.5967   57.2216   42.5311 dc         1 CLA      0.029300
     89 HAC1       69.8230   57.0107   40.8875 dc         1 CLA      0.029300
     90 HAA2       76.6060   56.6678   32.6249 dc         1 CLA      0.028700
     91 HAA1       77.1595   58.2645   32.9939 dc         1 CLA      0.028700
     92 H203       84.2916   59.2088   44.8032 dc         1 CLA      0.065600
     93 H202       84.0395   59.7780   43.0615 dc         1 CLA      0.065600
     94 H201       83.7818   60.8665   44.2951 dc         1 CLA      0.065600
     95 H193       82.1506   59.9643   46.3794 dc         1 CLA      0.065600
     96 H192       81.4630   61.1388   45.4210 dc         1 CLA      0.065600
     97 H191       80.6687   59.5844   45.8717 dc         1 CLA      0.065600
     98 H172       80.8380   57.7571   44.2678 dc         1 CLA      0.027600
     99 H171       82.5375   57.3634   44.6975 dc         1 CLA      0.027600
    100 H162       83.2259   57.4130   42.3580 dc         1 CLA      0.002900
    101 H161       81.6603   58.1023   41.9535 dc         1 CLA      0.002900
    102 H152       80.7538   55.8378   42.9595 dc         1 CLA      0.029100
    103 H151       82.4174   55.3388   42.9658 dc         1 CLA      0.029100
    104 H143       80.9295   57.4067   39.8323 dc         1 CLA      0.063600
    105 H142       80.2930   55.9028   39.0582 dc         1 CLA      0.063600
    106 H141       79.7392   56.4670   40.6337 dc         1 CLA      0.063600
    107 H122       83.5958   54.6030   40.8039 dc         1 CLA      0.032500
    108 H121       83.5865   56.3004   40.3145 dc         1 CLA      0.032500
    109 H112       82.8564   55.9214   38.1899 dc         1 CLA      0.006600
    110 H111       82.4705   54.2386   38.4667 dc         1 CLA      0.006600
    111 H102       84.7717   53.6762   38.9190 dc         1 CLA      0.024100
    112 H101       85.3356   55.3513   38.8630 dc         1 CLA      0.024100
    113 HHD        70.9281   56.0134   38.7815 da         1 CLA      0.174300
    114 HHC        75.1414   59.7979   41.9075 da         1 CLA      0.136800
    115 HHB        79.3826   59.1715   37.2578 da         1 CLA      0.138300
    116 HBD        75.0526   55.3873   32.9104 dc         1 CLA      0.107700
    117 HAB        76.7754   61.6645   42.4251 da         1 CLA      0.155200
    118 H93        86.8836   53.3979   36.9231 dc         1 CLA      0.069500
    119 H92        86.6800   54.3759   35.4503 dc         1 CLA      0.069500
    120 H91        87.0577   55.1716   37.1270 dc         1 CLA      0.069500
    121 H8         84.8729   55.4801   36.4655 dc         1 CLA      0.029300
    122 H72        83.0609   53.5935   36.4041 dc         1 CLA      0.044400
    123 H71        84.3020   52.4325   36.6787 dc         1 CLA      0.044400
    124 H62        85.1483   52.8032   34.3943 dc         1 CLA      0.015600
    125 H61        84.1079   54.3237   34.2528 dc         1 CLA      0.015600
    126 H52        83.4783   51.3233   34.5203 dc         1 CLA      0.033200
    127 H51        83.2547   52.2138   33.0901 dc         1 CLA      0.033200
    128 H43        80.0117   51.6649   35.1692 dc         1 CLA      0.037000
    129 H42        81.5787   51.1458   35.8856 dc         1 CLA      0.037000
    130 H41        80.7858   52.6841   36.3178 dc         1 CLA      0.037000
    131 H3A        79.2901   58.2415   34.7543 dc         1 CLA      0.041100
    132 H2A        78.1070   55.6766   34.2302 dc         1 CLA      0.083100
    133 H2         81.7043   54.7668   34.0923 da         1 CLA      0.180900
    134 H18        81.7651   59.9754   43.4193 dc         1 CLA     -0.003900
    135 H13        81.1872   54.4893   41.0513 dc         1 CLA      0.019700
    136 H12        79.6243   53.2851   32.5987 dc         1 CLA      0.120400
    137 H11        81.0221   53.7231   31.6972 dc         1 CLA      0.120400
    138 C1         67.2295   60.3782   48.6536 Z1         2 LUT      0.509236
    139 C2         65.8984   60.3540   49.3793 Z2         2 LUT     -0.434695
    140 C3         65.1874   61.6597   49.5828 Z3         2 LUT      0.437453
    141 O3         65.1912   62.0996   50.9478 S1         2 LUT     -0.547129
    142 C4         65.8219   62.7756   48.7688 Z4         2 LUT     -0.468603
    143 C5         66.4032   62.3662   47.4290 Z5         2 LUT      0.279246
    144 C6         67.1400   61.2052   47.4136 Z6         2 LUT     -0.305473
    145 C7         67.5617   60.5583   46.0513 Z7         2 LUT      0.069402
    146 C8         68.3311   61.2439   45.1314 Z8         2 LUT     -0.191631
    147 C9         68.8411   60.7612   43.8139 Z9         2 LUT      0.196698
    148 C10        69.8626   61.4910   43.1919 Y1         2 LUT     -0.208611
    149 C11        70.4885   61.2547   41.9773 Y2         2 LUT      0.030784
    150 C12        71.6936   61.7756   41.7418 Y3         2 LUT     -0.220316
    151 C13        72.5574   61.6775   40.6156 Y4         2 LUT      0.215937
    152 C14        73.7766   62.3205   40.7188 Y5         2 LUT     -0.185793
    153 C15        74.8255   62.5073   39.7388 Y6         2 LUT     -0.057835
    154 C16        67.8342   58.9314   48.4910 Y7         2 LUT     -0.405615
    155 C17        68.2329   61.0740   49.6965 Y7         2 LUT     -0.405615
    156 C18        65.7638   63.1628   46.2735 Y9         2 LUT     -0.369639
    157 C19        68.0140   59.6414   43.2150 W1         2 LUT     -0.333362
    158 C20        72.0635   61.0950   39.3053 W2         2 LUT     -0.323439
    159 C21        86.3308   64.0264   33.9673 Z1         2 LUT      0.406104
    160 C22        86.8997   63.4099   32.7324 Z2         2 LUT     -0.404965
    161 C23        87.0431   64.3561   31.5638 Z3         2 LUT      0.391255
    162 O23        87.2774   63.5441   30.4082 S1         2 LUT     -0.528210
    163 C24        85.8243   65.3334   31.3761 W6         2 LUT     -0.258361
    164 C25        84.8507   65.4707   32.2787 Z5         2 LUT      0.133546
    165 C26        84.8886   64.6624   33.5519 W8         2 LUT     -0.147008
    166 C27        84.1154   65.2898   34.7057 Z7         2 LUT      0.023843
    167 C28        82.9987   64.7774   35.1926 Z8         2 LUT     -0.216987
    168 C29        82.2318   65.2624   36.3467 Z9         2 LUT      0.206524
    169 C30        81.2943   64.4284   36.7664 Y1         2 LUT     -0.215556
    170 C31        80.3948   64.5453   37.9027 Y2         2 LUT      0.025142
    171 C32        79.2383   63.8526   38.1398 Y3         2 LUT     -0.212209
    172 C33        78.3101   63.9239   39.2492 Y4         2 LUT      0.240937
    173 C34        77.0745   63.2580   39.0768 Y5         2 LUT     -0.218862
    174 C35        76.0226   63.1344   40.0422 Y6         2 LUT     -0.023547
    175 C36        87.4078   65.0431   34.4836 Y7         2 LUT     -0.393485
    176 C37        86.2222   62.9611   35.0659 Y7         2 LUT     -0.393485
    177 C38        83.6422   66.3438   32.0483 Y9         2 LUT     -0.387526
    178 C39        82.5712   66.5680   37.0567 W1         2 LUT     -0.322618
    179 C40        78.5689   64.8957   40.2793 W2         2 LUT     -0.358472
    180 H403       79.6351   65.0092   40.5276 R7         2 LUT      0.097720
    181 H402       78.1421   65.8883   40.0500 R7         2 LUT      0.097720
    182 H401       78.1602   64.5611   41.2370 R7         2 LUT      0.097720
    183 H393       82.7886   67.2809   36.2756 R4         2 LUT      0.082505
    184 H392       81.7018   66.9268   37.5691 R4         2 LUT      0.082505
    185 H391       83.2754   66.5500   37.8689 R4         2 LUT      0.082505
    186 H383       83.3223   66.9152   32.8704 R1         2 LUT      0.104030
    187 H382       83.8905   67.0587   31.2100 R1         2 LUT      0.104030
    188 H381       82.7613   65.8492   31.7143 R1         2 LUT      0.104030
    189 H373       85.4005   62.3131   34.8459 T4         2 LUT      0.089537
    190 H372       87.1699   62.4270   35.1266 T4         2 LUT      0.089537
    191 H371       86.0834   63.4164   36.1141 T4         2 LUT      0.089537
    192 H363       88.3728   64.5678   34.6811 T4         2 LUT      0.089537
    193 H362       87.4097   65.9581   33.8440 T4         2 LUT      0.089537
    194 H361       87.1035   65.4612   35.4685 T4         2 LUT      0.089537
    195 H222       87.9136   63.1058   33.0155 U2         2 LUT      0.127376
    196 H221       86.4490   62.4631   32.5859 U2         2 LUT      0.127376
    197 H203       71.4735   60.2504   39.5630 R7         2 LUT      0.087068
    198 H202       71.3862   61.8469   38.8492 R7         2 LUT      0.087068
    199 H201       72.8407   60.7679   38.5543 R7         2 LUT      0.087068
    200 H193       68.2614   58.6441   43.7301 R4         2 LUT      0.089716
    201 H192       66.9604   59.9250   43.1693 R4         2 LUT      0.089716
    202 H191       68.2936   59.5429   42.1569 R4         2 LUT      0.089716
    203 H183       66.4584   64.0298   46.0825 R1         2 LUT      0.094572
    204 H182       65.6546   62.6581   45.2572 R1         2 LUT      0.094572
    205 H181       64.7315   63.5614   46.4617 R1         2 LUT      0.094572
    206 H173       67.7913   61.6419   50.4834 T4         2 LUT      0.093752
    207 H172       68.8469   60.3174   50.1699 T4         2 LUT      0.093752
    208 H171       68.9434   61.7225   49.2671 T4         2 LUT      0.093752
    209 H163       68.8988   58.9351   48.2041 T4         2 LUT      0.093752
    210 H162       67.7587   58.3488   49.4523 T4         2 LUT      0.093752
    211 H161       67.1882   58.3424   47.8205 T4         2 LUT      0.093752
    212 HO3        64.5519   61.6000   51.4902 Q1         2 LUT      0.300121
    213 H8         68.5893   62.2653   45.4517 U7         2 LUT      0.080784
    214 H7         67.3615   59.4613   45.9023 U6         2 LUT      0.042190
    215 H42        65.0602   63.6002   48.5961 U5         2 LUT      0.145166
    216 H41        66.5924   63.3374   49.2609 U5         2 LUT      0.145166
    217 H35        76.2940   63.5240   41.1054 T3         2 LUT      0.077919
    218 H34        76.8632   62.8633   38.1356 T2         2 LUT      0.073626
    219 H32        78.9971   63.2364   37.3335 T1         2 LUT      0.092510
    220 H31        80.6086   65.3367   38.6281 U9         2 LUT      0.070048
    221 H30        81.2441   63.4693   36.3012 U8         2 LUT      0.085442
    222 H3         64.1851   61.4743   49.0748 U3         2 LUT     -0.031596
    223 H28        82.6305   63.8595   34.6916 U7         2 LUT      0.084728
    224 H27        84.5935   66.1442   35.2313 U6         2 LUT      0.087291
    225 H26        84.3907   63.8083   33.0915 Q6         2 LUT      0.075325
    226 H24        85.8426   65.9155   30.4895 Q5         2 LUT      0.094482
    227 H23        87.9903   64.8911   31.7247 U3         2 LUT     -0.024869
    228 H22        65.2130   59.7923   48.7376 U2         2 LUT      0.127376
    229 H21        66.0357   59.8647   50.3577 U2         2 LUT      0.127376
    230 H15        74.7764   62.1194   38.7335 T3         2 LUT      0.093200
    231 H14        73.9090   62.8394   41.6946 T2         2 LUT      0.068865
    232 H12        72.1124   62.2513   42.6241 T1         2 LUT      0.095507
    233 H11        70.0717   60.5831   41.2673 U9         2 LUT      0.068930
    234 H10        70.2314   62.3450   43.7727 U8         2 LUT      0.083911
    235 H1         87.8441   64.0257   29.8025 Q1         2 LUT      0.297311
@<TRIPOS>BOND
    1     6     1 1
    2     7     2 1
    3     8     3 1
    4     9     4 1
    5    11     4 1
    6    12     6 1
    7    13     9 1
    8    16     9 1
    9    25     5 1
   10    25    16 1
   11    26    10 1
   12    26    17 1
   13    27    18 1
   14    28    14 1
   15    28    19 1
   16    29    12 1
   17    30    13 1
   18    31    24 1
   19    32     1 1
   20    32    25 1
   21    33    21 1
   22    33    26 1
   23    34    22 1
   24    34    27 1
   25    35    23 1
   26    35    28 1
   27    36    12 1
   28    36    24 1
   29    37    13 1
   30    37    15 1
   31    38    31 1
   32    39    20 1
   33    39    32 1
   34    40     2 1
   35    40    33 1
   36    41     3 1
   37    41    34 1
   38    42     4 1
   39    42    35 1
   40    43    38 1
   41    44     5 1
   42    44    17 1
   43    44    39 1
   44    45    10 1
   45    45    18 1
   46    45    40 1
   47    46    19 1
   48    46    41 1
   49    47    14 1
   50    47    16 1
   51    47    42 1
   52    48    38 1
   53    49    48 1
   54    50    49 1
   55    51    50 1
   56    52    51 1
   57    53    51 1
   58    54    53 1
   59    55    54 1
   60    56    55 1
   61    57    56 1
   62    58    56 1
   63    59    58 1
   64    60    59 1
   65    61    60 1
   66    62    61 1
   67    63    61 1
   68    64    27 1
   69    64    46 1
   70    65     5 1
   71    65    10 1
   72    65    64 1
   73    65    14 1
   74    66    23 1
   75    67    23 1
   76    68    23 1
   77    69    22 1
   78    70    22 1
   79    71    22 1
   80    72    21 1
   81    73    21 1
   82    74    21 1
   83    75    20 1
   84    76    20 1
   85    77    20 1
   86    78    15 1
   87    79    15 1
   88    80    15 1
   89    81     8 1
   90    82     8 1
   91    83     8 1
   92    84     7 1
   93    85     7 1
   94    86     6 1
   95    87     6 1
   96    88     3 1
   97    89     3 1
   98    90     1 1
   99    91     1 1
  100    92    63 1
  101    93    63 1
  102    94    63 1
  103    95    62 1
  104    96    62 1
  105    97    62 1
  106    98    60 1
  107    99    60 1
  108   100    59 1
  109   101    59 1
  110   102    58 1
  111   103    58 1
  112   104    57 1
  113   105    57 1
  114   106    57 1
  115   107    55 1
  116   108    55 1
  117   109    54 1
  118   110    54 1
  119   111    53 1
  120   112    53 1
  121   113    19 1
  122   114    18 1
  123   115    17 1
  124   116     9 1
  125   117     2 1
  126   118    52 1
  127   119    52 1
  128   120    52 1
  129   121    51 1
  130   122    50 1
  131   123    50 1
  132   124    49 1
  133   125    49 1
  134   126    48 1
  135   127    48 1
  136   128    43 1
  137   129    43 1
  138   130    43 1
  139   131    39 1
  140   132    32 1
  141   133    31 1
  142   134    61 1
  143   135    56 1
  144   136    24 1
  145   137    24 1
  146   139   138 1
  147   140   139 1
  148   141   140 1
  149   142   140 1
  150   143   142 1
  151   144   138 1
  152   144   143 1
  153   145   144 1
  154   146   145 1
  155   147   146 1
  156   148   147 1
  157   149   148 1
  158   150   149 1
  159   151   150 1
  160   152   151 1
  161   153   152 1
  162   154   138 1
  163   155   138 1
  164   156   143 1
  165   157   147 1
  166   158   151 1
  167   160   159 1
  168   161   160 1
  169   162   161 1
  170   163   161 1
  171   164   163 1
  172   165   159 1
  173   165   164 1
  174   166   165 1
  175   167   166 1
  176   168   167 1
  177   169   168 1
  178   170   169 1
  179   171   170 1
  180   172   171 1
  181   173   172 1
  182   174   153 1
  183   174   173 1
  184   175   159 1
  185   176   159 1
  186   177   164 1
  187   178   168 1
  188   179   172 1
  189   180   179 1
  190   181   179 1
  191   182   179 1
  192   183   178 1
  193   184   178 1
  194   185   178 1
  195   186   177 1
  196   187   177 1
  197   188   177 1
  198   189   176 1
  199   190   176 1
  200   191   176 1
  201   192   175 1
  202   193   175 1
  203   194   175 1
  204   195   160 1
  205   196   160 1
  206   197   158 1
  207   198   158 1
  208   199   158 1
  209   200   157 1
  210   201   157 1
  211   202   157 1
  212   203   156 1
  213   204   156 1
  214   205   156 1
  215   206   155 1
  216   207   155 1
  217   208   155 1
  218   209   154 1
  219   210   154 1
  220   211   154 1
  221   212   141 1
  222   213   146 1
  223   214   145 1
  224   215   142 1
  225   216   142 1
  226   217   174 1
  227   218   173 1
  228   219   171 1
  229   220   170 1
  230   221   169 1
  231   222   140 1
  232   223   167 1
  233   224   166 1
  234   225   165 1
  235   226   163 1
  236   227   161 1
  237   228   139 1
  238   229   139 1
  239   230   153 1
  240   231   152 1
  241   232   150 1
  242   233   149 1
  243   234   148 1
  244   235   162 1
  245   65    153 1
  246   65    174 1
@<TRIPOS>SUBSTRUCTURE
      1 CLA               1 ****               0 ****  **** 
      2 LUT             138 ****               0 ****  **** 
