@<TRIPOS>MOLECULE
Cpptraj generated mol2 file.
  235   246     2     0     0
SMALL
USER_CHARGES


@<TRIPOS>ATOM
      1 CAA        76.9261   57.7520   33.5423 a2         1 CLA     -0.055900
      2 CAB        77.4232   61.1353   42.4903 c8         1 CLA     -0.148500
      3 CAC        70.2042   57.5519   42.1047 a2         1 CLA     -0.012600
      4 CAD        72.6414   55.3973   34.7533 ck         1 CLA      0.398800
      5 NA         76.0587   57.9849   36.8737 ns         1 CLA     -0.225500
      6 CBA        78.0858   57.8539   32.5504 a2         1 CLA     -0.135000
      7 CBB        78.5634   60.7109   43.0865 c0         1 CLA     -0.395200
      8 CBC        70.4499   56.0547   42.4026 a3         1 CLA     -0.037700
      9 CBD        74.1621   55.8603   34.3611 a1         1 CLA     -0.053900
     10 NB         76.0030   59.6200   39.4459 nm         1 CLA     -0.295700
     11 OBD        71.8780   54.7207   34.1171 o2         1 CLA     -0.494600
     12 CGA        78.6005   56.4780   31.9864 c4         1 CLA      0.827000
     13 CGD        75.0538   54.7517   33.7203 c4         1 CLA      0.655300
     14 ND         73.2174   57.4189   37.6212 nm         1 CLA     -0.291600
     15 CED        75.8795   52.4841   34.0398 a3         1 CLA      0.005400
     16 CHA        74.6091   56.6575   35.6569 cs         1 CLA     -0.123800
     17 CHB        77.8442   59.3053   37.8319 aa         1 CLA     -0.291900
     18 CHC        74.7602   59.7249   41.5903 aa         1 CLA     -0.090400
     19 CHD        71.3604   57.4119   39.1726 aa         1 CLA     -0.052000
     20 CMA        79.3983   57.0822   36.1398 a3         1 CLA     -0.230700
     21 CMB        79.2235   61.3257   39.8883 a3         1 CLA     -0.180800
     22 CMC        72.6406   58.8130   43.8057 a3         1 CLA     -0.134000
     23 CMD        69.9565   55.6023   36.9922 a3         1 CLA     -0.141100
     24 C1         79.5342   54.3505   32.6518 a2         1 CLA      0.023000
     25 C1A        75.8312   57.2243   35.8287 ac         1 CLA     -0.015100
     26 C1B        77.2731   59.8862   39.0276 cr         1 CLA      0.054700
     27 C1C        73.5265   59.1625   41.3177 cn         1 CLA     -0.005600
     28 C1D        71.8812   57.1113   37.9416 ap         1 CLA     -0.047300
     29 O1A        78.6432   56.0982   30.8030 o2         1 CLA     -0.610800
     30 O1D        75.7455   54.8298   32.6986 o2         1 CLA     -0.558200
     31 C2         80.0780   53.7939   33.8977 c8         1 CLA     -0.325100
     32 C2A        77.0624   57.1804   34.9084 a1         1 CLA      0.098600
     33 C2B        77.9215   60.6974   40.0273 cb         1 CLA      0.088500
     34 C2C        72.4969   58.7439   42.2940 cb         1 CLA      0.053700
     35 C2D        71.3486   56.1773   36.9660 cb         1 CLA      0.058900
     36 O2A        79.0817   55.6661   33.0157 o1         1 CLA     -0.437200
     37 O2D        75.0582   53.6317   34.5987 o1         1 CLA     -0.357600
     38 C3         80.8140   52.7026   34.1238 c5         1 CLA      0.031200
     39 C3A        78.1773   57.9294   35.7233 a1         1 CLA      0.166800
     40 C3B        77.0300   60.6746   41.1195 cb         1 CLA      0.035000
     41 C3C        71.3974   58.2734   41.5582 cb         1 CLA     -0.089900
     42 C3D        72.3541   56.0129   35.9900 cb         1 CLA     -0.035900
     43 C4         80.2480   51.3391   34.2540 a3         1 CLA     -0.053300
     44 C4A        77.3753   58.4314   36.8907 ac         1 CLA      0.001800
     45 C4B        75.8161   59.9648   40.7907 cn         1 CLA     -0.020900
     46 C4C        71.9125   58.1695   40.1873 cr         1 CLA     -0.044400
     47 C4D        73.5081   56.7720   36.4933 c6         1 CLA     -0.046000
     48 C5         82.3356   52.8744   34.0964 a2         1 CLA     -0.070400
     49 C6         82.9698   54.2454   34.5830 a2         1 CLA      0.043900
     50 C7         82.9685   54.3198   36.1085 a2         1 CLA     -0.150000
     51 C8         83.4971   55.7211   36.6357 a1         1 CLA      0.064200
     52 C9         84.9286   56.0252   36.1665 a3         1 CLA     -0.259300
     53 C10        83.4172   56.0768   38.1351 a2         1 CLA     -0.071900
     54 C11        82.0311   55.9189   38.8201 a2         1 CLA      0.014500
     55 C12        82.1201   56.2567   40.2993 a2         1 CLA     -0.112100
     56 C13        80.8458   56.4081   41.1446 a1         1 CLA      0.089200
     57 C14        80.1048   57.6821   40.6638 a3         1 CLA     -0.239100
     58 C15        81.1852   56.4717   42.6964 a2         1 CLA     -0.102200
     59 C16        82.1016   57.6277   43.1264 a2         1 CLA      0.023900
     60 C17        82.5324   57.6173   44.6017 a2         1 CLA     -0.105700
     61 C18        83.3685   58.9111   45.0134 a1         1 CLA      0.206800
     62 C19        84.5922   59.0792   44.1556 a3         1 CLA     -0.280100
     63 C20        82.4495   60.1819   45.0213 a3         1 CLA     -0.280100
     64 NC         73.1797   58.7129   40.0922 nx         1 CLA     -0.309200
     65 MG         74.5341   58.6440   38.4196 mg         1 CLA      0.895000
     66 HMD3       69.6773   55.6822   35.9515 dc         1 CLA      0.064300
     67 HMD2       69.9138   54.5301   37.2563 dc         1 CLA      0.064300
     68 HMD1       69.3203   56.2915   37.5260 dc         1 CLA      0.064300
     69 HMC3       73.2912   58.0437   44.1905 dc         1 CLA      0.052100
     70 HMC2       73.0278   59.7851   44.1626 dc         1 CLA      0.052100
     71 HMC1       71.6993   58.7093   44.3593 dc         1 CLA      0.052100
     72 HMB3       79.9228   60.7070   40.3866 dc         1 CLA      0.063600
     73 HMB2       79.5587   61.4308   38.8527 dc         1 CLA      0.063600
     74 HMB1       79.2855   62.2992   40.3707 dc         1 CLA      0.063600
     75 HMA3       80.1967   56.7555   35.4508 dc         1 CLA      0.058300
     76 HMA2       79.9261   57.5594   36.9315 dc         1 CLA      0.058300
     77 HMA1       78.9298   56.2345   36.6948 dc         1 CLA      0.058300
     78 HED3       75.8681   51.6162   34.7879 dc         1 CLA      0.079300
     79 HED2       75.6911   52.0903   33.0566 dc         1 CLA      0.079300
     80 HED1       76.9394   52.7926   34.0506 dc         1 CLA      0.079300
     81 HBC3       69.5947   55.6074   42.9202 dc         1 CLA      0.016300
     82 HBC2       70.6823   55.5676   41.4973 dc         1 CLA      0.016300
     83 HBC1       71.2902   56.0488   43.1238 dc         1 CLA      0.016300
     84 HBB2       78.7758   60.9553   44.1409 da         1 CLA      0.183000
     85 HBB1       79.2637   59.9723   42.6478 da         1 CLA      0.183000
     86 HBA2       77.7206   58.4356   31.6824 dc         1 CLA      0.029400
     87 HBA1       78.9210   58.3448   33.0707 dc         1 CLA      0.029400
     88 HAC2       69.8951   57.9982   43.0430 dc         1 CLA      0.029300
     89 HAC1       69.3725   57.4263   41.4279 dc         1 CLA      0.029300
     90 HAA2       76.1240   57.2363   33.2073 dc         1 CLA      0.028700
     91 HAA1       76.5852   58.7879   33.7002 dc         1 CLA      0.028700
     92 H203       82.9558   61.0247   45.5293 dc         1 CLA      0.065600
     93 H202       82.0607   60.5408   44.0386 dc         1 CLA      0.065600
     94 H201       81.5794   59.8542   45.6689 dc         1 CLA      0.065600
     95 H193       84.3728   59.4128   43.1588 dc         1 CLA      0.065600
     96 H192       85.1602   59.8770   44.6162 dc         1 CLA      0.065600
     97 H191       85.2294   58.1217   44.2016 dc         1 CLA      0.065600
     98 H172       81.5930   57.4702   45.1710 dc         1 CLA      0.027600
     99 H171       83.1071   56.7198   44.7771 dc         1 CLA      0.027600
    100 H162       82.9795   57.4501   42.5692 dc         1 CLA      0.002900
    101 H161       81.7628   58.6299   42.8829 dc         1 CLA      0.002900
    102 H152       80.2783   56.7279   43.2736 dc         1 CLA      0.029100
    103 H151       81.7041   55.5121   42.9997 dc         1 CLA      0.029100
    104 H143       79.1863   57.8640   41.2266 dc         1 CLA      0.063600
    105 H142       80.7508   58.6023   40.5723 dc         1 CLA      0.063600
    106 H141       79.8650   57.4918   39.6022 dc         1 CLA      0.063600
    107 H122       82.6930   55.4707   40.7077 dc         1 CLA      0.032500
    108 H121       82.7454   57.1605   40.4055 dc         1 CLA      0.032500
    109 H112       81.4107   56.6678   38.4204 dc         1 CLA      0.006600
    110 H111       81.4376   54.9941   38.7530 dc         1 CLA      0.006600
    111 H102       83.9796   55.3430   38.7211 dc         1 CLA      0.024100
    112 H101       83.8713   57.0682   38.3763 dc         1 CLA      0.024100
    113 HHD        70.3031   57.0785   39.2272 da         1 CLA      0.174300
    114 HHC        74.9544   60.0959   42.5392 da         1 CLA      0.136800
    115 HHB        78.7448   59.7887   37.5472 da         1 CLA      0.138300
    116 HBD        73.9749   56.5635   33.5630 dc         1 CLA      0.107700
    117 HAB        76.7106   61.7352   43.0451 da         1 CLA      0.155200
    118 H93        85.1051   56.1725   35.0966 dc         1 CLA      0.069500
    119 H92        85.3847   56.8183   36.6494 dc         1 CLA      0.069500
    120 H91        85.4603   55.1621   36.3895 dc         1 CLA      0.069500
    121 H8         82.8298   56.4931   36.2369 dc         1 CLA      0.029300
    122 H72        81.9223   54.2392   36.3095 dc         1 CLA      0.044400
    123 H71        83.5038   53.4976   36.5686 dc         1 CLA      0.044400
    124 H62        84.0115   54.2645   34.2164 dc         1 CLA      0.015600
    125 H61        82.4445   55.0491   34.1086 dc         1 CLA      0.015600
    126 H52        82.7968   52.0847   34.6611 dc         1 CLA      0.033200
    127 H51        82.7005   52.5878   33.0235 dc         1 CLA      0.033200
    128 H43        80.6683   50.8808   35.1432 dc         1 CLA      0.037000
    129 H42        79.2032   51.4484   34.3159 dc         1 CLA      0.037000
    130 H41        80.5645   50.7542   33.3776 dc         1 CLA      0.037000
    131 H3A        78.5533   58.8278   35.1972 dc         1 CLA      0.041100
    132 H2A        77.1967   56.1049   34.8120 dc         1 CLA      0.083100
    133 H2         79.6902   54.2830   34.8211 da         1 CLA      0.180900
    134 H18        83.7719   58.8027   46.0083 dc         1 CLA     -0.003900
    135 H13        80.1774   55.5384   40.9656 dc         1 CLA      0.019700
    136 H12        78.7684   53.6955   32.3726 dc         1 CLA      0.120400
    137 H11        80.2595   54.4500   31.7628 dc         1 CLA      0.120400
    138 C1         67.0134   60.9846   49.6900 Z1         2 LUT      0.509236
    139 C2         67.1132   62.2330   50.6570 Z2         2 LUT     -0.434695
    140 C3         65.8543   62.9990   50.8583 Z3         2 LUT      0.437453
    141 O3         66.1881   64.2814   51.2025 S1         2 LUT     -0.547129
    142 C4         64.9552   62.9329   49.6279 Z4         2 LUT     -0.468603
    143 C5         65.5984   62.4577   48.2906 Z5         2 LUT      0.279246
    144 C6         66.4501   61.3732   48.2967 Z6         2 LUT     -0.305473
    145 C7         67.2138   60.9084   47.1532 Z7         2 LUT      0.069402
    146 C8         68.1790   61.5030   46.3867 Z8         2 LUT     -0.191631
    147 C9         68.7451   61.1028   45.0918 Z9         2 LUT      0.196698
    148 C10        69.8815   61.8275   44.6067 Y1         2 LUT     -0.208611
    149 C11        70.5762   61.7881   43.3366 Y2         2 LUT      0.030784
    150 C12        71.6790   62.4279   42.9925 Y3         2 LUT     -0.220316
    151 C13        72.4932   62.3645   41.7615 Y4         2 LUT      0.215937
    152 C14        73.5107   63.3086   41.7237 Y5         2 LUT     -0.185793
    153 C15        74.6201   63.2697   40.8484 Y6         2 LUT     -0.057835
    154 C16        66.0673   60.0140   50.5418 Y7         2 LUT     -0.405615
    155 C17        68.3840   60.4096   49.7372 Y7         2 LUT     -0.405615
    156 C18        65.4194   63.4177   47.1706 Y9         2 LUT     -0.369639
    157 C19        67.9756   60.0933   44.3159 W1         2 LUT     -0.333362
    158 C20        71.7823   61.9656   40.4383 W2         2 LUT     -0.323439
    159 C21        85.6045   64.5350   34.2535 Z1         2 LUT      0.406104
    160 C22        86.2046   63.7335   33.0419 Z2         2 LUT     -0.404965
    161 C23        86.5536   64.4980   31.8195 Z3         2 LUT      0.391255
    162 O23        86.6010   63.6123   30.6781 S1         2 LUT     -0.528210
    163 C24        85.4857   65.5672   31.6339 W6         2 LUT     -0.258361
    164 C25        84.4467   65.8348   32.4887 Z5         2 LUT      0.133546
    165 C26        84.1987   65.0215   33.8224 W8         2 LUT     -0.147008
    166 C27        83.4464   65.7237   34.9231 Z7         2 LUT      0.023843
    167 C28        82.3607   65.1162   35.5308 Z8         2 LUT     -0.216987
    168 C29        81.7522   65.6291   36.6853 Z9         2 LUT      0.206524
    169 C30        80.7387   64.9296   37.2722 Y1         2 LUT     -0.215556
    170 C31        80.0510   65.1903   38.4466 Y2         2 LUT      0.025142
    171 C32        78.8250   64.6408   38.7546 Y3         2 LUT     -0.212209
    172 C33        77.8129   64.9266   39.8346 Y4         2 LUT      0.240937
    173 C34        76.6380   64.2125   39.7480 Y5         2 LUT     -0.218862
    174 C35        75.6391   64.1898   40.7127 Y6         2 LUT     -0.023547
    175 C36        86.5982   65.5711   34.7132 Y7         2 LUT     -0.393485
    176 C37        85.5111   63.4350   35.3898 Y7         2 LUT     -0.393485
    177 C38        83.4250   66.9121   32.0641 Y9         2 LUT     -0.387526
    178 C39        82.2058   66.9410   37.2785 W1         2 LUT     -0.322618
    179 C40        78.1575   65.9645   40.8172 W2         2 LUT     -0.358472
    180 H403       77.4091   66.0867   41.6144 R7         2 LUT      0.097720
    181 H402       78.9755   65.6522   41.3709 R7         2 LUT      0.097720
    182 H401       78.2386   66.9548   40.3307 R7         2 LUT      0.097720
    183 H393       81.5653   67.7902   36.9463 R4         2 LUT      0.082505
    184 H392       82.0973   66.9619   38.3276 R4         2 LUT      0.082505
    185 H391       83.1975   67.2451   37.1325 R4         2 LUT      0.082505
    186 H383       82.4435   66.4971   31.6619 R1         2 LUT      0.104030
    187 H382       83.1708   67.5978   32.9060 R1         2 LUT      0.104030
    188 H381       83.7499   67.5691   31.3286 R1         2 LUT      0.104030
    189 H373       84.6372   62.7305   35.2462 T4         2 LUT      0.089537
    190 H372       86.4178   62.8522   35.5717 T4         2 LUT      0.089537
    191 H371       85.3433   63.8448   36.3851 T4         2 LUT      0.089537
    192 H363       87.5756   65.1867   34.8846 T4         2 LUT      0.089537
    193 H362       86.7973   66.2811   33.9190 T4         2 LUT      0.089537
    194 H361       86.3241   66.0974   35.6667 T4         2 LUT      0.089537
    195 H222       87.0931   63.1013   33.3621 U2         2 LUT      0.127376
    196 H221       85.3999   63.0562   32.6723 U2         2 LUT      0.127376
    197 H203       71.1013   61.1613   40.5621 R7         2 LUT      0.087068
    198 H202       71.1899   62.7850   40.0016 R7         2 LUT      0.087068
    199 H201       72.4664   61.6321   39.6333 R7         2 LUT      0.087068
    200 H193       68.0626   60.4282   43.2824 R4         2 LUT      0.089716
    201 H192       68.4603   59.1322   44.3733 R4         2 LUT      0.089716
    202 H191       66.9562   60.0805   44.5505 R4         2 LUT      0.089716
    203 H183       64.4357   63.7885   47.2322 R1         2 LUT      0.094572
    204 H182       66.1112   64.2540   47.1556 R1         2 LUT      0.094572
    205 H181       65.5181   62.8524   46.2445 R1         2 LUT      0.094572
    206 H173       69.0464   60.9649   49.0474 T4         2 LUT      0.093752
    207 H172       68.8981   60.1867   50.6759 T4         2 LUT      0.093752
    208 H171       68.3571   59.4210   49.2634 T4         2 LUT      0.093752
    209 H163       66.2302   60.0782   51.6317 T4         2 LUT      0.093752
    210 H162       65.0583   60.2908   50.5252 T4         2 LUT      0.093752
    211 H161       66.1776   58.9508   50.1676 T4         2 LUT      0.093752
    212 HO3        65.4685   64.5908   51.7639 Q1         2 LUT      0.300121
    213 H8         68.4477   62.5276   46.6619 U7         2 LUT      0.080784
    214 H7         66.8449   59.9710   46.8443 U6         2 LUT      0.042190
    215 H42        64.1829   62.1168   49.7424 U5         2 LUT      0.145166
    216 H41        64.4000   63.9518   49.4734 U5         2 LUT      0.145166
    217 H35        75.7006   65.0007   41.4736 T3         2 LUT      0.077919
    218 H34        76.5129   63.4803   38.9699 T2         2 LUT      0.073626
    219 H32        78.4561   63.8058   38.1169 T1         2 LUT      0.092510
    220 H31        80.4938   65.9364   39.1228 U9         2 LUT      0.070048
    221 H30        80.2874   64.0842   36.7452 U8         2 LUT      0.085442
    222 H3         65.2854   62.4416   51.6894 U3         2 LUT     -0.031596
    223 H28        81.9943   64.2711   34.9961 U7         2 LUT      0.084728
    224 H27        83.9821   66.5953   35.3348 U6         2 LUT      0.087291
    225 H26        83.6291   64.1219   33.5548 Q6         2 LUT      0.075325
    226 H24        85.6453   66.1315   30.7086 Q5         2 LUT      0.094482
    227 H23        87.4788   64.9641   32.1080 U3         2 LUT     -0.024869
    228 H22        67.4814   62.0877   51.6671 U2         2 LUT      0.127376
    229 H21        67.8251   62.9232   50.2303 U2         2 LUT      0.127376
    230 H15        74.6555   62.4817   40.1661 T3         2 LUT      0.093200
    231 H14        73.5559   63.9735   42.5934 T2         2 LUT      0.068865
    232 H12        72.0590   63.1371   43.6762 T1         2 LUT      0.095507
    233 H11        70.2002   61.1518   42.5922 U9         2 LUT      0.068930
    234 H10        70.4103   62.5301   45.2537 U8         2 LUT      0.083911
    235 H1         87.2769   63.8779   30.0122 Q1         2 LUT      0.297311
@<TRIPOS>BOND
    1     6     1 1
    2     7     2 1
    3     8     3 1
    4     9     4 1
    5    11     4 1
    6    12     6 1
    7    13     9 1
    8    16     9 1
    9    25     5 1
   10    25    16 1
   11    26    10 1
   12    26    17 1
   13    27    18 1
   14    28    14 1
   15    28    19 1
   16    29    12 1
   17    30    13 1
   18    31    24 1
   19    32     1 1
   20    32    25 1
   21    33    21 1
   22    33    26 1
   23    34    22 1
   24    34    27 1
   25    35    23 1
   26    35    28 1
   27    36    12 1
   28    36    24 1
   29    37    13 1
   30    37    15 1
   31    38    31 1
   32    39    20 1
   33    39    32 1
   34    40     2 1
   35    40    33 1
   36    41     3 1
   37    41    34 1
   38    42     4 1
   39    42    35 1
   40    43    38 1
   41    44     5 1
   42    44    17 1
   43    44    39 1
   44    45    10 1
   45    45    18 1
   46    45    40 1
   47    46    19 1
   48    46    41 1
   49    47    14 1
   50    47    16 1
   51    47    42 1
   52    48    38 1
   53    49    48 1
   54    50    49 1
   55    51    50 1
   56    52    51 1
   57    53    51 1
   58    54    53 1
   59    55    54 1
   60    56    55 1
   61    57    56 1
   62    58    56 1
   63    59    58 1
   64    60    59 1
   65    61    60 1
   66    62    61 1
   67    63    61 1
   68    64    27 1
   69    64    46 1
   70    65     5 1
   71    65    10 1
   72    65    64 1
   73    65    14 1
   74    66    23 1
   75    67    23 1
   76    68    23 1
   77    69    22 1
   78    70    22 1
   79    71    22 1
   80    72    21 1
   81    73    21 1
   82    74    21 1
   83    75    20 1
   84    76    20 1
   85    77    20 1
   86    78    15 1
   87    79    15 1
   88    80    15 1
   89    81     8 1
   90    82     8 1
   91    83     8 1
   92    84     7 1
   93    85     7 1
   94    86     6 1
   95    87     6 1
   96    88     3 1
   97    89     3 1
   98    90     1 1
   99    91     1 1
  100    92    63 1
  101    93    63 1
  102    94    63 1
  103    95    62 1
  104    96    62 1
  105    97    62 1
  106    98    60 1
  107    99    60 1
  108   100    59 1
  109   101    59 1
  110   102    58 1
  111   103    58 1
  112   104    57 1
  113   105    57 1
  114   106    57 1
  115   107    55 1
  116   108    55 1
  117   109    54 1
  118   110    54 1
  119   111    53 1
  120   112    53 1
  121   113    19 1
  122   114    18 1
  123   115    17 1
  124   116     9 1
  125   117     2 1
  126   118    52 1
  127   119    52 1
  128   120    52 1
  129   121    51 1
  130   122    50 1
  131   123    50 1
  132   124    49 1
  133   125    49 1
  134   126    48 1
  135   127    48 1
  136   128    43 1
  137   129    43 1
  138   130    43 1
  139   131    39 1
  140   132    32 1
  141   133    31 1
  142   134    61 1
  143   135    56 1
  144   136    24 1
  145   137    24 1
  146   139   138 1
  147   140   139 1
  148   141   140 1
  149   142   140 1
  150   143   142 1
  151   144   138 1
  152   144   143 1
  153   145   144 1
  154   146   145 1
  155   147   146 1
  156   148   147 1
  157   149   148 1
  158   150   149 1
  159   151   150 1
  160   152   151 1
  161   153   152 1
  162   154   138 1
  163   155   138 1
  164   156   143 1
  165   157   147 1
  166   158   151 1
  167   160   159 1
  168   161   160 1
  169   162   161 1
  170   163   161 1
  171   164   163 1
  172   165   159 1
  173   165   164 1
  174   166   165 1
  175   167   166 1
  176   168   167 1
  177   169   168 1
  178   170   169 1
  179   171   170 1
  180   172   171 1
  181   173   172 1
  182   174   153 1
  183   174   173 1
  184   175   159 1
  185   176   159 1
  186   177   164 1
  187   178   168 1
  188   179   172 1
  189   180   179 1
  190   181   179 1
  191   182   179 1
  192   183   178 1
  193   184   178 1
  194   185   178 1
  195   186   177 1
  196   187   177 1
  197   188   177 1
  198   189   176 1
  199   190   176 1
  200   191   176 1
  201   192   175 1
  202   193   175 1
  203   194   175 1
  204   195   160 1
  205   196   160 1
  206   197   158 1
  207   198   158 1
  208   199   158 1
  209   200   157 1
  210   201   157 1
  211   202   157 1
  212   203   156 1
  213   204   156 1
  214   205   156 1
  215   206   155 1
  216   207   155 1
  217   208   155 1
  218   209   154 1
  219   210   154 1
  220   211   154 1
  221   212   141 1
  222   213   146 1
  223   214   145 1
  224   215   142 1
  225   216   142 1
  226   217   174 1
  227   218   173 1
  228   219   171 1
  229   220   170 1
  230   221   169 1
  231   222   140 1
  232   223   167 1
  233   224   166 1
  234   225   165 1
  235   226   163 1
  236   227   161 1
  237   228   139 1
  238   229   139 1
  239   230   153 1
  240   231   152 1
  241   232   150 1
  242   233   149 1
  243   234   148 1
  244   235   162 1
  245   65    153 1
  246   65    174 1
@<TRIPOS>SUBSTRUCTURE
      1 CLA               1 ****               0 ****  **** 
      2 LUT             138 ****               0 ****  **** 
