@<TRIPOS>MOLECULE
Cpptraj generated mol2 file.
  235   246     2     0     0
SMALL
USER_CHARGES


@<TRIPOS>ATOM
      1 CAA        77.8129   59.0004   35.4104 a2         1 CLA     -0.055900
      2 CAB        77.8984   63.1806   44.0915 c8         1 CLA     -0.148500
      3 CAC        70.8448   59.0902   43.8561 a2         1 CLA     -0.012600
      4 CAD        73.6196   56.3827   36.6481 ck         1 CLA      0.398800
      5 NA         76.8869   59.4283   38.7215 ns         1 CLA     -0.225500
      6 CBA        79.0589   59.0384   34.4039 a2         1 CLA     -0.135000
      7 CBB        76.9806   63.7345   44.9086 c0         1 CLA     -0.395200
      8 CBC        71.1138   57.6927   44.3665 a3         1 CLA     -0.037700
      9 CBD        75.1391   56.7367   36.4311 a1         1 CLA     -0.053900
     10 NB         76.6421   61.2209   41.1801 nm         1 CLA     -0.295700
     11 OBD        73.0053   55.4883   36.0252 o2         1 CLA     -0.494600
     12 CGA        79.7040   57.6806   33.9013 c4         1 CLA      0.827000
     13 CGD        76.0170   55.4526   36.4998 c4         1 CLA      0.655300
     14 ND         73.9653   58.6426   39.2912 nm         1 CLA     -0.291600
     15 CED        76.3669   53.4057   37.5848 a3         1 CLA      0.005400
     16 CHA        75.4831   57.8151   37.5091 cs         1 CLA     -0.123800
     17 CHB        78.5138   61.0891   39.5314 aa         1 CLA     -0.291900
     18 CHC        75.2989   61.5862   43.1817 aa         1 CLA     -0.090400
     19 CHD        72.1166   58.6463   40.9838 aa         1 CLA     -0.052000
     20 CMA        80.2056   58.8265   38.3353 a3         1 CLA     -0.230700
     21 CMB        80.0152   62.8665   41.6356 a3         1 CLA     -0.180800
     22 CMC        72.9060   61.3669   45.2495 a3         1 CLA     -0.134000
     23 CMD        70.8185   56.6498   38.7801 a3         1 CLA     -0.141100
     24 C1         80.4966   55.5632   34.6651 a2         1 CLA      0.023000
     25 C1A        76.6981   58.5418   37.6219 ac         1 CLA     -0.015100
     26 C1B        77.8510   61.5469   40.7438 cr         1 CLA      0.054700
     27 C1C        74.1523   60.8408   42.9432 cn         1 CLA     -0.005600
     28 C1D        72.6857   58.1982   39.7461 ap         1 CLA     -0.047300
     29 O1A        79.9180   57.3932   32.7094 o2         1 CLA     -0.610800
     30 O1D        76.8934   55.1848   35.6667 o2         1 CLA     -0.558200
     31 C2         80.6386   54.6594   35.9012 c8         1 CLA     -0.325100
     32 C2A        77.9919   58.5417   36.7954 a1         1 CLA      0.098600
     33 C2B        78.5952   62.3473   41.6965 cb         1 CLA      0.088500
     34 C2C        73.0079   60.6640   43.8777 cb         1 CLA      0.053700
     35 C2D        72.1641   57.2755   38.7307 cb         1 CLA      0.058900
     36 O2A        79.8924   56.8230   34.9903 o1         1 CLA     -0.437200
     37 O2D        75.7259   54.7097   37.6217 o1         1 CLA     -0.357600
     38 C3         81.6968   54.3908   36.6490 c5         1 CLA      0.031200
     39 C3A        78.9780   59.4197   37.6515 a1         1 CLA      0.166800
     40 C3B        77.6615   62.4929   42.7779 cb         1 CLA      0.035000
     41 C3C        72.1698   59.7131   43.2597 cb         1 CLA     -0.089900
     42 C3D        73.1872   57.1251   37.8507 cb         1 CLA     -0.035900
     43 C4         82.5743   53.2038   36.3094 a3         1 CLA     -0.053300
     44 C4A        78.0199   60.1173   38.6472 ac         1 CLA      0.001800
     45 C4B        76.4690   61.7705   42.3908 cn         1 CLA     -0.020900
     46 C4C        72.6889   59.4966   41.9438 cr         1 CLA     -0.044400
     47 C4D        74.3133   57.9324   38.2407 c6         1 CLA     -0.046000
     48 C5         81.9930   55.2926   37.8703 a2         1 CLA     -0.070400
     49 C6         83.1102   56.3643   37.7745 a2         1 CLA      0.043900
     50 C7         83.3947   56.9672   39.1401 a2         1 CLA     -0.150000
     51 C8         84.1648   58.3674   39.1790 a1         1 CLA      0.064200
     52 C9         85.4088   58.4038   38.2951 a3         1 CLA     -0.259300
     53 C10        84.2296   58.9318   40.5861 a2         1 CLA     -0.071900
     54 C11        82.9025   59.4080   41.2002 a2         1 CLA      0.014500
     55 C12        83.0801   60.3603   42.4120 a2         1 CLA     -0.112100
     56 C13        84.0540   60.0784   43.6234 a1         1 CLA      0.089200
     57 C14        83.8070   58.6542   44.2167 a3         1 CLA     -0.239100
     58 C15        83.8743   61.2382   44.7086 a2         1 CLA     -0.102200
     59 C16        82.5610   61.2113   45.5812 a2         1 CLA      0.023900
     60 C17        82.5751   62.3399   46.5531 a2         1 CLA     -0.105700
     61 C18        81.4165   62.5046   47.4850 a1         1 CLA      0.206800
     62 C19        81.8187   63.6167   48.5140 a3         1 CLA     -0.280100
     63 C20        80.1555   62.9432   46.7380 a3         1 CLA     -0.280100
     64 NC         73.9386   60.0976   41.8073 nx         1 CLA     -0.309200
     65 MG         75.3177   60.0277   40.1692 mg         1 CLA      0.895000
     66 HMD3       70.7826   55.7123   38.2710 dc         1 CLA      0.064300
     67 HMD2       70.5077   56.5771   39.8070 dc         1 CLA      0.064300
     68 HMD1       70.1210   57.2798   38.2412 dc         1 CLA      0.064300
     69 HMC3       73.1022   62.4266   45.1055 dc         1 CLA      0.052100
     70 HMC2       71.9592   61.1961   45.8476 dc         1 CLA      0.052100
     71 HMC1       73.6738   60.9985   45.9322 dc         1 CLA      0.052100
     72 HMB3       80.4886   62.8557   40.6205 dc         1 CLA      0.063600
     73 HMB2       80.0505   63.9161   41.8904 dc         1 CLA      0.063600
     74 HMB1       80.6347   62.1650   42.1661 dc         1 CLA      0.063600
     75 HMA3       79.8462   58.0004   38.9431 dc         1 CLA      0.058300
     76 HMA2       80.9323   58.5473   37.5239 dc         1 CLA      0.058300
     77 HMA1       80.6048   59.6118   39.0249 dc         1 CLA      0.058300
     78 HED3       75.6589   52.7669   37.0733 dc         1 CLA      0.079300
     79 HED2       77.3966   53.4005   37.2381 dc         1 CLA      0.079300
     80 HED1       76.3469   52.9394   38.5760 dc         1 CLA      0.079300
     81 HBC3       70.2213   57.6076   44.9804 dc         1 CLA      0.016300
     82 HBC2       71.2705   56.9764   43.6136 dc         1 CLA      0.016300
     83 HBC1       71.9712   57.7344   45.0725 dc         1 CLA      0.016300
     84 HBB2       77.4020   64.0899   45.8440 da         1 CLA      0.183000
     85 HBB1       75.8855   63.8408   44.7826 da         1 CLA      0.183000
     86 HBA2       78.8408   59.6648   33.5511 dc         1 CLA      0.029400
     87 HBA1       79.8746   59.4388   34.9213 dc         1 CLA      0.029400
     88 HAC2       70.4114   59.8249   44.5174 dc         1 CLA      0.029300
     89 HAC1       70.1476   59.1347   43.1135 dc         1 CLA      0.029300
     90 HAA2       76.9084   58.4939   35.0507 dc         1 CLA      0.028700
     91 HAA1       77.4264   59.9741   35.4441 dc         1 CLA      0.028700
     92 H203       80.3132   63.7261   45.9646 dc         1 CLA      0.065600
     93 H202       79.7102   62.0738   46.2238 dc         1 CLA      0.065600
     94 H201       79.4199   63.3026   47.4426 dc         1 CLA      0.065600
     95 H193       81.8664   64.5814   47.9804 dc         1 CLA      0.065600
     96 H192       81.0073   63.8501   49.2757 dc         1 CLA      0.065600
     97 H191       82.7486   63.3995   48.9783 dc         1 CLA      0.065600
     98 H172       83.4146   62.1345   47.1732 dc         1 CLA      0.027600
     99 H171       82.7779   63.2945   46.0239 dc         1 CLA      0.027600
    100 H162       81.7004   61.1855   44.9481 dc         1 CLA      0.002900
    101 H161       82.5804   60.2330   46.0671 dc         1 CLA      0.002900
    102 H152       84.7528   61.1244   45.3249 dc         1 CLA      0.029100
    103 H151       83.9303   62.1979   44.1130 dc         1 CLA      0.029100
    104 H143       84.1306   57.9320   43.5028 dc         1 CLA      0.063600
    105 H142       84.2701   58.4009   45.2297 dc         1 CLA      0.063600
    106 H141       82.7394   58.3924   44.2508 dc         1 CLA      0.063600
    107 H122       83.4519   61.3496   42.0244 dc         1 CLA      0.032500
    108 H121       82.0859   60.4224   42.8641 dc         1 CLA      0.032500
    109 H112       82.3554   60.0668   40.4810 dc         1 CLA      0.006600
    110 H111       82.4394   58.4987   41.5113 dc         1 CLA      0.006600
    111 H102       84.7498   58.1988   41.1873 dc         1 CLA      0.024100
    112 H101       84.8317   59.8009   40.4351 dc         1 CLA      0.024100
    113 HHD        71.1253   58.2339   41.2432 da         1 CLA      0.174300
    114 HHC        75.2820   61.9867   44.1798 da         1 CLA      0.136800
    115 HHB        79.5367   61.3463   39.3649 da         1 CLA      0.138300
    116 HBD        75.2631   57.1268   35.4147 dc         1 CLA      0.107700
    117 HAB        78.9364   63.2507   44.3483 da         1 CLA      0.155200
    118 H93        86.2550   57.6850   38.4673 dc         1 CLA      0.069500
    119 H92        85.0031   58.3587   37.2535 dc         1 CLA      0.069500
    120 H91        85.8188   59.4560   38.2378 dc         1 CLA      0.069500
    121 H8         83.4952   59.0306   38.7246 dc         1 CLA      0.029300
    122 H72        82.3835   57.1352   39.5036 dc         1 CLA      0.044400
    123 H71        83.8611   56.2501   39.8080 dc         1 CLA      0.044400
    124 H62        83.9757   55.7250   37.5187 dc         1 CLA      0.015600
    125 H61        82.8697   57.1835   37.0790 dc         1 CLA      0.015600
    126 H52        81.0113   55.7603   38.1605 dc         1 CLA      0.033200
    127 H51        82.4571   54.6969   38.6779 dc         1 CLA      0.033200
    128 H43        82.2674   52.4125   36.8964 dc         1 CLA      0.037000
    129 H42        82.3759   52.8600   35.2384 dc         1 CLA      0.037000
    130 H41        83.6430   53.4097   36.3675 dc         1 CLA      0.037000
    131 H3A        79.3388   60.2372   37.0431 dc         1 CLA      0.041100
    132 H2A        78.2553   57.4917   36.7442 dc         1 CLA      0.083100
    133 H2         79.6784   54.1657   36.1700 da         1 CLA      0.180900
    134 H18        81.1581   61.5967   48.0123 dc         1 CLA     -0.003900
    135 H13        85.0526   60.0146   43.2602 dc         1 CLA      0.019700
    136 H12        79.9318   55.1787   33.8153 dc         1 CLA      0.120400
    137 H11        81.5106   55.6767   34.3152 dc         1 CLA      0.120400
    138 C1         66.9345   63.0386   51.3092 Z1         2 LUT      0.509236
    139 C2         66.8263   64.2580   52.2347 Z2         2 LUT     -0.434695
    140 C3         65.5447   64.9874   52.1755 Z3         2 LUT      0.437453
    141 O3         65.8386   66.2902   52.7055 S1         2 LUT     -0.547129
    142 C4         64.9889   65.0402   50.7516 Z4         2 LUT     -0.468603
    143 C5         65.7371   64.4676   49.6710 Z5         2 LUT      0.279246
    144 C6         66.6152   63.4542   49.8189 Z6         2 LUT     -0.305473
    145 C7         67.4789   62.8299   48.7562 Z7         2 LUT      0.069402
    146 C8         68.2282   63.5635   47.8403 Z8         2 LUT     -0.191631
    147 C9         69.0219   63.1083   46.6879 Z9         2 LUT      0.196698
    148 C10        69.9023   63.9915   46.0427 Y1         2 LUT     -0.208611
    149 C11        70.7440   63.8447   44.8403 Y2         2 LUT      0.030784
    150 C12        71.8287   64.6394   44.3889 Y3         2 LUT     -0.220316
    151 C13        72.5967   64.4378   43.1179 Y4         2 LUT      0.215937
    152 C14        73.8143   65.0781   43.0231 Y5         2 LUT     -0.185793
    153 C15        74.8030   65.0160   41.9338 Y6         2 LUT     -0.057835
    154 C16        65.8639   62.0453   51.7749 Y7         2 LUT     -0.405615
    155 C17        68.3259   62.3704   51.6099 Y7         2 LUT     -0.405615
    156 C18        65.3563   65.2383   48.4137 Y9         2 LUT     -0.369639
    157 C19        68.7050   61.7433   46.0987 W1         2 LUT     -0.333362
    158 C20        72.0525   63.5209   41.9893 W2         2 LUT     -0.323439
    159 C21        86.6995   65.8424   36.1965 Z1         2 LUT      0.406104
    160 C22        87.4108   65.2444   34.9754 Z2         2 LUT     -0.404965
    161 C23        87.3599   66.0631   33.7417 Z3         2 LUT      0.391255
    162 O23        88.0147   65.3335   32.7385 S1         2 LUT     -0.528210
    163 C24        85.9598   66.6962   33.5530 W6         2 LUT     -0.258361
    164 C25        84.9551   66.7504   34.4833 Z5         2 LUT      0.133546
    165 C26        85.1935   66.1535   35.8738 W8         2 LUT     -0.147008
    166 C27        84.4432   66.7141   37.0861 Z7         2 LUT      0.023843
    167 C28        83.1487   66.3980   37.4478 Z8         2 LUT     -0.216987
    168 C29        82.4514   67.1392   38.4225 Z9         2 LUT      0.206524
    169 C30        81.2908   66.6036   38.8454 Y1         2 LUT     -0.215556
    170 C31        80.3408   66.9589   39.8909 Y2         2 LUT      0.025142
    171 C32        79.2053   66.2247   40.1529 Y3         2 LUT     -0.212209
    172 C33        78.2000   66.3858   41.2351 Y4         2 LUT      0.240937
    173 C34        77.0260   65.6362   41.0842 Y5         2 LUT     -0.218862
    174 C35        75.9418   65.6524   42.0716 Y6         2 LUT     -0.023547
    175 C36        87.4671   67.0949   36.6876 Y7         2 LUT     -0.393485
    176 C37        86.9262   64.7327   37.2789 Y7         2 LUT     -0.393485
    177 C38        83.7063   67.5899   34.1998 Y9         2 LUT     -0.387526
    178 C39        83.0108   68.4462   38.8882 W1         2 LUT     -0.322618
    179 C40        78.7770   66.9261   42.4755 W2         2 LUT     -0.358472
    180 H403       78.0890   66.7204   43.3634 R7         2 LUT      0.097720
    181 H402       79.8146   66.5791   42.6834 R7         2 LUT      0.097720
    182 H401       78.8179   68.0324   42.3483 R7         2 LUT      0.097720
    183 H393       83.3202   69.0696   38.0871 R4         2 LUT      0.082505
    184 H392       82.3142   69.1176   39.3972 R4         2 LUT      0.082505
    185 H391       83.9021   68.3620   39.5373 R4         2 LUT      0.082505
    186 H383       83.7949   68.1677   33.2691 R1         2 LUT      0.104030
    187 H382       82.8209   67.0508   33.9767 R1         2 LUT      0.104030
    188 H381       83.5899   68.3391   34.9498 R1         2 LUT      0.104030
    189 H373       86.6150   65.0824   38.2449 T4         2 LUT      0.089537
    190 H372       86.3328   63.8041   36.9919 T4         2 LUT      0.089537
    191 H371       88.0483   64.5120   37.4346 T4         2 LUT      0.089537
    192 H363       87.2833   67.9492   36.0272 T4         2 LUT      0.089537
    193 H362       87.2299   67.3386   37.7100 T4         2 LUT      0.089537
    194 H361       88.6096   67.0041   36.5527 T4         2 LUT      0.089537
    195 H222       88.4473   65.0545   35.2150 U2         2 LUT      0.127376
    196 H221       86.9378   64.3246   34.7510 U2         2 LUT      0.127376
    197 H203       72.8131   63.1417   41.3557 R7         2 LUT      0.087068
    198 H202       71.6991   62.6456   42.5006 R7         2 LUT      0.087068
    199 H201       71.1926   63.9209   41.3912 R7         2 LUT      0.087068
    200 H193       69.1670   60.8875   46.5023 R4         2 LUT      0.089716
    201 H192       67.6490   61.5368   46.0824 R4         2 LUT      0.089716
    202 H191       68.8995   61.6479   44.9993 R4         2 LUT      0.089716
    203 H183       64.3944   65.7761   48.3554 R1         2 LUT      0.094572
    204 H182       66.1785   65.8921   48.2118 R1         2 LUT      0.094572
    205 H181       65.3626   64.5800   47.6171 R1         2 LUT      0.094572
    206 H173       68.4068   62.1095   52.6650 T4         2 LUT      0.093752
    207 H172       68.4320   61.5039   50.9554 T4         2 LUT      0.093752
    208 H171       69.1832   62.9672   51.2626 T4         2 LUT      0.093752
    209 H163       66.1344   61.1010   51.2988 T4         2 LUT      0.093752
    210 H162       65.6396   61.9940   52.8320 T4         2 LUT      0.093752
    211 H161       64.8779   62.2809   51.3511 T4         2 LUT      0.093752
    212 HO3        65.4124   66.3874   53.5891 Q1         2 LUT      0.300121
    213 H8         68.2158   64.6059   47.9459 U7         2 LUT      0.080784
    214 H7         67.7568   61.7839   48.6582 U6         2 LUT      0.042190
    215 H42        63.9519   64.7043   50.8021 U5         2 LUT      0.145166
    216 H41        64.8040   66.1129   50.4949 U5         2 LUT      0.145166
    217 H35        76.1554   66.1261   43.0029 T3         2 LUT      0.077919
    218 H34        76.8641   64.9315   40.2442 T2         2 LUT      0.073626
    219 H32        79.0086   65.4469   39.4640 T1         2 LUT      0.092510
    220 H31        80.5132   67.7751   40.5565 U9         2 LUT      0.070048
    221 H30        81.0202   65.7451   38.2904 U8         2 LUT      0.085442
    222 H3         64.7393   64.4077   52.7139 U3         2 LUT     -0.031596
    223 H28        82.6440   65.5924   36.8659 U7         2 LUT      0.084728
    224 H27        85.0866   67.4426   37.5426 U6         2 LUT      0.087291
    225 H26        84.6771   65.2031   35.6437 Q6         2 LUT      0.075325
    226 H24        85.9469   67.1471   32.5779 Q5         2 LUT      0.094482
    227 H23        88.0815   66.8817   33.9883 U3         2 LUT     -0.024869
    228 H22        66.9397   63.9501   53.2534 U2         2 LUT      0.127376
    229 H21        67.6074   64.8608   51.7846 U2         2 LUT      0.127376
    230 H15        74.6071   64.6139   40.9754 T3         2 LUT      0.093200
    231 H14        74.0316   65.7794   43.8693 T2         2 LUT      0.068865
    232 H12        72.1790   65.3923   45.0921 T1         2 LUT      0.095507
    233 H11        70.5244   62.9940   44.2325 U9         2 LUT      0.068930
    234 H10        70.0898   64.9455   46.6333 U8         2 LUT      0.083911
    235 H1         87.9591   65.7501   31.9014 Q1         2 LUT      0.297311
@<TRIPOS>BOND
    1     6     1 1
    2     7     2 1
    3     8     3 1
    4     9     4 1
    5    11     4 1
    6    12     6 1
    7    13     9 1
    8    16     9 1
    9    25     5 1
   10    25    16 1
   11    26    10 1
   12    26    17 1
   13    27    18 1
   14    28    14 1
   15    28    19 1
   16    29    12 1
   17    30    13 1
   18    31    24 1
   19    32     1 1
   20    32    25 1
   21    33    21 1
   22    33    26 1
   23    34    22 1
   24    34    27 1
   25    35    23 1
   26    35    28 1
   27    36    12 1
   28    36    24 1
   29    37    13 1
   30    37    15 1
   31    38    31 1
   32    39    20 1
   33    39    32 1
   34    40     2 1
   35    40    33 1
   36    41     3 1
   37    41    34 1
   38    42     4 1
   39    42    35 1
   40    43    38 1
   41    44     5 1
   42    44    17 1
   43    44    39 1
   44    45    10 1
   45    45    18 1
   46    45    40 1
   47    46    19 1
   48    46    41 1
   49    47    14 1
   50    47    16 1
   51    47    42 1
   52    48    38 1
   53    49    48 1
   54    50    49 1
   55    51    50 1
   56    52    51 1
   57    53    51 1
   58    54    53 1
   59    55    54 1
   60    56    55 1
   61    57    56 1
   62    58    56 1
   63    59    58 1
   64    60    59 1
   65    61    60 1
   66    62    61 1
   67    63    61 1
   68    64    27 1
   69    64    46 1
   70    65     5 1
   71    65    10 1
   72    65    64 1
   73    65    14 1
   74    66    23 1
   75    67    23 1
   76    68    23 1
   77    69    22 1
   78    70    22 1
   79    71    22 1
   80    72    21 1
   81    73    21 1
   82    74    21 1
   83    75    20 1
   84    76    20 1
   85    77    20 1
   86    78    15 1
   87    79    15 1
   88    80    15 1
   89    81     8 1
   90    82     8 1
   91    83     8 1
   92    84     7 1
   93    85     7 1
   94    86     6 1
   95    87     6 1
   96    88     3 1
   97    89     3 1
   98    90     1 1
   99    91     1 1
  100    92    63 1
  101    93    63 1
  102    94    63 1
  103    95    62 1
  104    96    62 1
  105    97    62 1
  106    98    60 1
  107    99    60 1
  108   100    59 1
  109   101    59 1
  110   102    58 1
  111   103    58 1
  112   104    57 1
  113   105    57 1
  114   106    57 1
  115   107    55 1
  116   108    55 1
  117   109    54 1
  118   110    54 1
  119   111    53 1
  120   112    53 1
  121   113    19 1
  122   114    18 1
  123   115    17 1
  124   116     9 1
  125   117     2 1
  126   118    52 1
  127   119    52 1
  128   120    52 1
  129   121    51 1
  130   122    50 1
  131   123    50 1
  132   124    49 1
  133   125    49 1
  134   126    48 1
  135   127    48 1
  136   128    43 1
  137   129    43 1
  138   130    43 1
  139   131    39 1
  140   132    32 1
  141   133    31 1
  142   134    61 1
  143   135    56 1
  144   136    24 1
  145   137    24 1
  146   139   138 1
  147   140   139 1
  148   141   140 1
  149   142   140 1
  150   143   142 1
  151   144   138 1
  152   144   143 1
  153   145   144 1
  154   146   145 1
  155   147   146 1
  156   148   147 1
  157   149   148 1
  158   150   149 1
  159   151   150 1
  160   152   151 1
  161   153   152 1
  162   154   138 1
  163   155   138 1
  164   156   143 1
  165   157   147 1
  166   158   151 1
  167   160   159 1
  168   161   160 1
  169   162   161 1
  170   163   161 1
  171   164   163 1
  172   165   159 1
  173   165   164 1
  174   166   165 1
  175   167   166 1
  176   168   167 1
  177   169   168 1
  178   170   169 1
  179   171   170 1
  180   172   171 1
  181   173   172 1
  182   174   153 1
  183   174   173 1
  184   175   159 1
  185   176   159 1
  186   177   164 1
  187   178   168 1
  188   179   172 1
  189   180   179 1
  190   181   179 1
  191   182   179 1
  192   183   178 1
  193   184   178 1
  194   185   178 1
  195   186   177 1
  196   187   177 1
  197   188   177 1
  198   189   176 1
  199   190   176 1
  200   191   176 1
  201   192   175 1
  202   193   175 1
  203   194   175 1
  204   195   160 1
  205   196   160 1
  206   197   158 1
  207   198   158 1
  208   199   158 1
  209   200   157 1
  210   201   157 1
  211   202   157 1
  212   203   156 1
  213   204   156 1
  214   205   156 1
  215   206   155 1
  216   207   155 1
  217   208   155 1
  218   209   154 1
  219   210   154 1
  220   211   154 1
  221   212   141 1
  222   213   146 1
  223   214   145 1
  224   215   142 1
  225   216   142 1
  226   217   174 1
  227   218   173 1
  228   219   171 1
  229   220   170 1
  230   221   169 1
  231   222   140 1
  232   223   167 1
  233   224   166 1
  234   225   165 1
  235   226   163 1
  236   227   161 1
  237   228   139 1
  238   229   139 1
  239   230   153 1
  240   231   152 1
  241   232   150 1
  242   233   149 1
  243   234   148 1
  244   235   162 1
  245   65    153 1
  246   65    174 1
@<TRIPOS>SUBSTRUCTURE
      1 CLA               1 ****               0 ****  **** 
      2 LUT             138 ****               0 ****  **** 
