@<TRIPOS>MOLECULE
Cpptraj generated mol2 file.
  235   246     2     0     0
SMALL
USER_CHARGES


@<TRIPOS>ATOM
      1 CAA        80.1282   58.5906   34.1694 a2         1 CLA     -0.055900
      2 CAB        80.0580   62.5389   43.0014 c8         1 CLA     -0.148500
      3 CAC        73.2214   58.1505   42.4786 a2         1 CLA     -0.012600
      4 CAD        76.0203   55.7546   35.3402 ck         1 CLA      0.398800
      5 NA         79.1135   58.7960   37.4840 ns         1 CLA     -0.225500
      6 CBA        81.2236   58.3472   33.1910 a2         1 CLA     -0.135000
      7 CBB        81.2462   62.9412   43.5536 c0         1 CLA     -0.395200
      8 CBC        73.5347   56.6883   42.7381 a3         1 CLA     -0.037700
      9 CBD        77.4202   56.3281   34.9844 a1         1 CLA     -0.053900
     10 NB         78.9595   60.3427   40.0996 nm         1 CLA     -0.295700
     11 OBD        75.3659   55.0022   34.6584 o2         1 CLA     -0.494600
     12 CGA        81.6973   56.9787   32.9427 c4         1 CLA      0.827000
     13 CGD        78.4036   55.1897   34.5948 c4         1 CLA      0.655300
     14 ND         76.3778   57.9397   38.1097 nm         1 CLA     -0.291600
     15 CED        79.5375   53.2436   35.4146 a3         1 CLA      0.005400
     16 CHA        77.8479   57.2518   36.1312 cs         1 CLA     -0.123800
     17 CHB        80.8181   60.1374   38.5701 aa         1 CLA     -0.291900
     18 CHC        77.5314   60.8852   42.1076 aa         1 CLA     -0.090400
     19 CHD        74.5641   57.5764   39.7550 aa         1 CLA     -0.052000
     20 CMA        82.4898   57.9728   37.0680 a3         1 CLA     -0.230700
     21 CMB        82.0114   62.4576   40.3653 a3         1 CLA     -0.180800
     22 CMC        75.4742   60.1664   44.2429 a3         1 CLA     -0.134000
     23 CMD        73.4719   55.3990   37.6483 a3         1 CLA     -0.141100
     24 C1         82.8469   55.0245   33.6640 a2         1 CLA      0.023000
     25 C1A        79.0159   57.9939   36.3938 ac         1 CLA     -0.015100
     26 C1B        80.2092   60.6995   39.7006 cr         1 CLA      0.054700
     27 C1C        76.4109   60.0798   41.8135 cn         1 CLA     -0.005600
     28 C1D        75.1905   57.2534   38.5005 ap         1 CLA     -0.047300
     29 O1A        81.4473   56.3347   31.9383 o2         1 CLA     -0.610800
     30 O1D        79.0566   55.1493   33.5895 o2         1 CLA     -0.558200
     31 C2         83.7161   54.6355   34.8534 c8         1 CLA     -0.325100
     32 C2A        80.3484   57.9339   35.6295 a1         1 CLA      0.098600
     33 C2B        80.7948   61.6503   40.6818 cb         1 CLA      0.088500
     34 C2C        75.3435   59.6990   42.7743 cb         1 CLA      0.053700
     35 C2D        74.6977   56.2979   37.5533 cb         1 CLA      0.058900
     36 O2A        82.4692   56.4627   33.9753 o1         1 CLA     -0.437200
     37 O2D        78.6167   54.3636   35.6476 o1         1 CLA     -0.357600
     38 C3         84.8726   53.9401   34.8821 c5         1 CLA      0.031200
     39 C3A        81.3227   58.8053   36.4877 a1         1 CLA      0.166800
     40 C3B        79.9233   61.7387   41.7192 cb         1 CLA      0.035000
     41 C3C        74.5059   58.8147   42.0301 cb         1 CLA     -0.089900
     42 C3D        75.6683   56.3674   36.5565 cb         1 CLA     -0.035900
     43 C4         84.8465   52.4045   34.7390 a3         1 CLA     -0.053300
     44 C4A        80.3554   59.3874   37.5575 ac         1 CLA      0.001800
     45 C4B        78.7010   60.9412   41.3518 cn         1 CLA     -0.020900
     46 C4C        74.9731   58.5818   40.7368 cr         1 CLA     -0.044400
     47 C4D        76.7133   57.2658   36.9702 c6         1 CLA     -0.046000
     48 C5         86.1778   54.6623   35.0484 a2         1 CLA     -0.070400
     49 C6         86.3001   55.5888   36.3356 a2         1 CLA      0.043900
     50 C7         87.8051   55.9027   36.7375 a2         1 CLA     -0.150000
     51 C8         87.9277   56.4959   38.1610 a1         1 CLA      0.064200
     52 C9         87.0338   57.7325   38.3196 a3         1 CLA     -0.259300
     53 C10        89.5060   56.6927   38.4277 a2         1 CLA     -0.071900
     54 C11        89.9492   57.2677   39.7660 a2         1 CLA      0.014500
     55 C12        89.8428   56.2023   40.8631 a2         1 CLA     -0.112100
     56 C13        90.3460   56.5978   42.3049 a1         1 CLA      0.089200
     57 C14        90.4210   55.3231   43.2149 a3         1 CLA     -0.239100
     58 C15        89.7023   57.8593   42.9572 a2         1 CLA     -0.102200
     59 C16        88.6738   57.5434   44.0862 a2         1 CLA      0.023900
     60 C17        87.9245   58.8327   44.4487 a2         1 CLA     -0.105700
     61 C18        86.7286   58.7529   45.4881 a1         1 CLA      0.206800
     62 C19        87.2464   58.3041   46.8621 a3         1 CLA     -0.280100
     63 C20        85.8884   60.0417   45.6957 a3         1 CLA     -0.280100
     64 NC         76.1424   59.3947   40.6152 nx         1 CLA     -0.309200
     65 MG         77.5383   59.2645   38.9716 mg         1 CLA      0.895000
     66 HMD3       72.5695   56.0194   37.4204 dc         1 CLA      0.064300
     67 HMD2       73.4319   54.6831   36.8643 dc         1 CLA      0.064300
     68 HMD1       73.5376   54.9082   38.6290 dc         1 CLA      0.064300
     69 HMC3       76.4342   60.0078   44.6447 dc         1 CLA      0.052100
     70 HMC2       75.2537   61.2926   44.4145 dc         1 CLA      0.052100
     71 HMC1       74.7327   59.5780   44.8736 dc         1 CLA      0.052100
     72 HMB3       82.1603   63.2334   41.0975 dc         1 CLA      0.063600
     73 HMB2       82.9044   61.8216   40.2865 dc         1 CLA      0.063600
     74 HMB1       81.9191   62.9506   39.4113 dc         1 CLA      0.063600
     75 HMA3       82.2367   57.4397   37.9964 dc         1 CLA      0.058300
     76 HMA2       83.1695   57.3297   36.4415 dc         1 CLA      0.058300
     77 HMA1       83.1225   58.7206   37.5621 dc         1 CLA      0.058300
     78 HED3       79.0791   52.6005   34.6829 dc         1 CLA      0.079300
     79 HED2       80.5187   53.5314   35.1311 dc         1 CLA      0.079300
     80 HED1       79.5539   52.5761   36.3479 dc         1 CLA      0.079300
     81 HBC3       74.5938   56.6343   43.0722 dc         1 CLA      0.016300
     82 HBC2       72.9462   56.2906   43.5459 dc         1 CLA      0.016300
     83 HBC1       73.3815   56.0450   41.8987 dc         1 CLA      0.016300
     84 HBB2       81.2625   63.6342   44.4420 da         1 CLA      0.183000
     85 HBB1       82.1749   62.4616   43.1795 da         1 CLA      0.183000
     86 HBA2       80.9307   58.7956   32.1847 dc         1 CLA      0.029400
     87 HBA1       82.0844   58.9323   33.5449 dc         1 CLA      0.029400
     88 HAC2       72.9793   58.5896   43.4421 dc         1 CLA      0.029300
     89 HAC1       72.4288   58.3492   41.7446 dc         1 CLA      0.029300
     90 HAA2       79.1916   58.0965   33.7457 dc         1 CLA      0.028700
     91 HAA1       79.7575   59.5657   34.1993 dc         1 CLA      0.028700
     92 H203       86.4935   60.8824   46.0449 dc         1 CLA      0.065600
     93 H202       85.2933   60.2961   44.7596 dc         1 CLA      0.065600
     94 H201       85.1305   60.0031   46.5595 dc         1 CLA      0.065600
     95 H193       87.8411   59.1079   47.2360 dc         1 CLA      0.065600
     96 H192       86.3928   58.1239   47.5496 dc         1 CLA      0.065600
     97 H191       87.7842   57.3773   46.7819 dc         1 CLA      0.065600
     98 H172       88.5795   59.6037   44.7786 dc         1 CLA      0.027600
     99 H171       87.6184   59.1078   43.4432 dc         1 CLA      0.027600
    100 H162       87.9442   56.8261   43.7020 dc         1 CLA      0.002900
    101 H161       89.0935   56.9937   44.9753 dc         1 CLA      0.002900
    102 H152       90.4914   58.4787   43.4061 dc         1 CLA      0.029100
    103 H151       89.1140   58.3483   42.1570 dc         1 CLA      0.029100
    104 H143       91.0380   54.6176   42.6171 dc         1 CLA      0.063600
    105 H142       90.8964   55.5704   44.1585 dc         1 CLA      0.063600
    106 H141       89.4976   54.8757   43.5063 dc         1 CLA      0.063600
    107 H122       88.8179   55.9776   40.9902 dc         1 CLA      0.032500
    108 H121       90.2901   55.2318   40.6166 dc         1 CLA      0.032500
    109 H112       90.9915   57.5565   39.8220 dc         1 CLA      0.006600
    110 H111       89.3547   58.1898   39.8784 dc         1 CLA      0.006600
    111 H102       90.0236   55.7585   38.2935 dc         1 CLA      0.024100
    112 H101       89.9550   57.3819   37.7741 dc         1 CLA      0.024100
    113 HHD        73.5993   57.1565   40.0257 da         1 CLA      0.174300
    114 HHC        77.6031   61.2591   43.1487 da         1 CLA      0.136800
    115 HHB        81.9084   60.4327   38.4556 da         1 CLA      0.138300
    116 HBD        77.3269   56.9351   34.0843 dc         1 CLA      0.107700
    117 HAB        79.1045   62.7506   43.4792 da         1 CLA      0.155200
    118 H93        87.2637   58.2021   39.2569 dc         1 CLA      0.069500
    119 H92        87.0791   58.3675   37.4411 dc         1 CLA      0.069500
    120 H91        85.9919   57.4145   38.4984 dc         1 CLA      0.069500
    121 H8         87.6176   55.8670   38.9995 dc         1 CLA      0.029300
    122 H72        88.3778   54.9813   36.7411 dc         1 CLA      0.044400
    123 H71        88.1011   56.6130   36.0407 dc         1 CLA      0.044400
    124 H62        85.6260   56.4603   36.3342 dc         1 CLA      0.015600
    125 H61        85.8704   55.0730   37.1213 dc         1 CLA      0.015600
    126 H52        87.0775   54.0898   34.9334 dc         1 CLA      0.033200
    127 H51        86.3332   55.3853   34.2762 dc         1 CLA      0.033200
    128 H43        84.4027   52.1721   33.7928 dc         1 CLA      0.037000
    129 H42        85.8578   51.9988   34.8578 dc         1 CLA      0.037000
    130 H41        84.3107   52.0215   35.5477 dc         1 CLA      0.037000
    131 H3A        81.6695   59.6124   35.8517 dc         1 CLA      0.041100
    132 H2A        80.6326   56.8533   35.5292 dc         1 CLA      0.083100
    133 H2         83.2850   54.7842   35.8320 da         1 CLA      0.180900
    134 H18        85.9948   57.9378   45.2347 dc         1 CLA     -0.003900
    135 H13        91.4185   56.8028   42.1940 dc         1 CLA      0.019700
    136 H12        82.0714   54.3150   33.5863 dc         1 CLA      0.120400
    137 H11        83.3785   55.0615   32.7487 dc         1 CLA      0.120400
    138 C1         70.3005   61.9511   49.6912 Z1         2 LUT      0.509236
    139 C2         68.9782   61.6971   50.4782 Z2         2 LUT     -0.434695
    140 C3         68.0987   62.9044   50.8360 Z3         2 LUT      0.437453
    141 O3         68.3895   63.4586   52.0940 S1         2 LUT     -0.547129
    142 C4         68.1086   63.9419   49.7879 Z4         2 LUT     -0.468603
    143 C5         68.8537   63.6527   48.4911 Z5         2 LUT      0.279246
    144 C6         69.8605   62.7821   48.4451 Z6         2 LUT     -0.305473
    145 C7         70.3969   62.4993   47.1590 Z7         2 LUT      0.069402
    146 C8         71.6250   62.8254   46.6778 Z8         2 LUT     -0.191631
    147 C9         72.1821   62.5737   45.3339 Z9         2 LUT      0.196698
    148 C10        73.2335   63.4181   44.8853 Y1         2 LUT     -0.208611
    149 C11        73.9293   63.4454   43.6419 Y2         2 LUT      0.030784
    150 C12        75.0324   64.2262   43.2754 Y3         2 LUT     -0.220316
    151 C13        75.8243   64.0712   42.0923 Y4         2 LUT      0.215937
    152 C14        77.0055   64.7044   42.0404 Y5         2 LUT     -0.185793
    153 C15        77.9997   64.5801   40.9946 Y6         2 LUT     -0.057835
    154 C16        71.1546   60.6411   49.3209 Y7         2 LUT     -0.405615
    155 C17        71.0419   62.9414   50.6029 Y7         2 LUT     -0.405615
    156 C18        68.4837   64.5793   47.3475 Y9         2 LUT     -0.369639
    157 C19        71.6363   61.5034   44.4429 W1         2 LUT     -0.333362
    158 C20        75.2933   63.2553   40.9033 W2         2 LUT     -0.323439
    159 C21        89.2073   65.5201   34.2239 Z1         2 LUT      0.406104
    160 C22        89.7438   64.9759   32.9285 Z2         2 LUT     -0.404965
    161 C23        89.7099   65.9568   31.7611 Z3         2 LUT      0.391255
    162 O23        90.2761   65.3736   30.5438 S1         2 LUT     -0.528210
    163 C24        88.3847   66.6948   31.7317 W6         2 LUT     -0.258361
    164 C25        87.4648   66.7543   32.7245 Z5         2 LUT      0.133546
    165 C26        87.6829   66.1339   34.0800 W8         2 LUT     -0.147008
    166 C27        87.1975   66.9059   35.2470 Z7         2 LUT      0.023843
    167 C28        85.9607   66.7383   35.8170 Z8         2 LUT     -0.216987
    168 C29        85.4094   67.0407   37.0996 Z9         2 LUT      0.206524
    169 C30        84.1594   66.5573   37.3822 Y1         2 LUT     -0.215556
    170 C31        83.4539   66.4441   38.6290 Y2         2 LUT      0.025142
    171 C32        82.2104   65.8944   38.9332 Y3         2 LUT     -0.212209
    172 C33        81.5313   65.9081   40.1886 Y4         2 LUT      0.240937
    173 C34        80.2975   65.1964   40.1841 Y5         2 LUT     -0.218862
    174 C35        79.2149   65.1993   41.1243 Y6         2 LUT     -0.023547
    175 C36        90.1892   66.6694   34.5605 Y7         2 LUT     -0.393485
    176 C37        89.2428   64.4439   35.3442 Y7         2 LUT     -0.393485
    177 C38        86.1491   67.4508   32.4195 Y9         2 LUT     -0.387526
    178 C39        86.2617   67.8221   38.0971 W1         2 LUT     -0.322618
    179 C40        82.1474   66.6572   41.3265 W2         2 LUT     -0.358472
    180 H403       82.6937   67.5431   41.1028 R7         2 LUT      0.097720
    181 H402       81.3973   66.7973   42.1169 R7         2 LUT      0.097720
    182 H401       82.9151   65.9647   41.7706 R7         2 LUT      0.097720
    183 H393       87.3148   68.0775   37.8598 R4         2 LUT      0.082505
    184 H392       85.7217   68.7828   38.3360 R4         2 LUT      0.082505
    185 H391       86.2945   67.2069   38.9900 R4         2 LUT      0.082505
    186 H383       85.4092   66.7112   32.8948 R1         2 LUT      0.104030
    187 H382       86.1163   68.3867   32.9895 R1         2 LUT      0.104030
    188 H381       85.9539   67.6647   31.3336 R1         2 LUT      0.104030
    189 H373       90.2896   64.2204   35.5081 T4         2 LUT      0.089537
    190 H372       88.9016   64.7930   36.3439 T4         2 LUT      0.089537
    191 H371       88.7221   63.5751   35.0123 T4         2 LUT      0.089537
    192 H363       91.2239   66.3628   34.7199 T4         2 LUT      0.089537
    193 H362       90.2352   67.4653   33.8536 T4         2 LUT      0.089537
    194 H361       89.9635   67.1635   35.5349 T4         2 LUT      0.089537
    195 H222       90.7981   64.6290   33.0562 U2         2 LUT      0.127376
    196 H221       89.0109   64.1866   32.7164 U2         2 LUT      0.127376
    197 H203       74.2248   63.3000   40.9077 R7         2 LUT      0.087068
    198 H202       75.6640   63.5537   39.9236 R7         2 LUT      0.087068
    199 H201       75.3963   62.1875   40.9194 R7         2 LUT      0.087068
    200 H193       71.8468   60.5606   44.9738 R4         2 LUT      0.089716
    201 H192       70.5364   61.4141   44.3873 R4         2 LUT      0.089716
    202 H191       72.1156   61.3975   43.4240 R4         2 LUT      0.089716
    203 H183       67.5826   65.0974   47.6119 R1         2 LUT      0.094572
    204 H182       69.2704   65.2914   47.1906 R1         2 LUT      0.094572
    205 H181       68.3533   64.1500   46.3227 R1         2 LUT      0.094572
    206 H173       72.0905   63.1620   50.4005 T4         2 LUT      0.093752
    207 H172       70.5023   63.9062   50.6819 T4         2 LUT      0.093752
    208 H171       71.1419   62.7095   51.6732 T4         2 LUT      0.093752
    209 H163       71.9650   60.8546   48.6372 T4         2 LUT      0.093752
    210 H162       71.6037   60.2776   50.2437 T4         2 LUT      0.093752
    211 H161       70.5705   59.8926   48.8029 T4         2 LUT      0.093752
    212 HO3        68.1244   62.9081   52.8233 Q1         2 LUT      0.300121
    213 H8         72.1923   63.4685   47.3881 U7         2 LUT      0.080784
    214 H7         69.6841   62.1320   46.3650 U6         2 LUT      0.042190
    215 H42        67.0899   64.0276   49.4661 U5         2 LUT      0.145166
    216 H41        68.4272   64.9204   50.1401 U5         2 LUT      0.145166
    217 H35        79.4755   65.8085   41.9496 T3         2 LUT      0.077919
    218 H34        80.0045   64.8403   39.1993 T2         2 LUT      0.073626
    219 H32        81.7348   65.3493   38.1298 T1         2 LUT      0.092510
    220 H31        83.9737   66.8569   39.5289 U9         2 LUT      0.070048
    221 H30        83.6221   66.1028   36.5098 U8         2 LUT      0.085442
    222 H3         67.0569   62.5595   50.8503 U3         2 LUT     -0.031596
    223 H28        85.2553   66.2103   35.1798 U7         2 LUT      0.084728
    224 H27        88.0258   67.2871   35.8718 U6         2 LUT      0.087291
    225 H26        87.0103   65.2438   34.0993 Q6         2 LUT      0.075325
    226 H24        88.1295   67.3220   30.8430 Q5         2 LUT      0.094482
    227 H23        90.3425   66.8308   31.8893 U3         2 LUT     -0.024869
    228 H22        68.2823   61.0848   49.9043 U2         2 LUT      0.127376
    229 H21        69.1902   61.1986   51.4077 U2         2 LUT      0.127376
    230 H15        77.8392   64.1089   40.0010 T3         2 LUT      0.093200
    231 H14        77.1887   65.3795   42.9074 T2         2 LUT      0.068865
    232 H12        75.3407   64.9170   44.1243 T1         2 LUT      0.095507
    233 H11        73.6435   62.5959   43.0173 U9         2 LUT      0.068930
    234 H10        73.3832   64.2218   45.5996 U8         2 LUT      0.083911
    235 H1         89.6334   64.8470   30.0967 Q1         2 LUT      0.297311
@<TRIPOS>BOND
    1     6     1 1
    2     7     2 1
    3     8     3 1
    4     9     4 1
    5    11     4 1
    6    12     6 1
    7    13     9 1
    8    16     9 1
    9    25     5 1
   10    25    16 1
   11    26    10 1
   12    26    17 1
   13    27    18 1
   14    28    14 1
   15    28    19 1
   16    29    12 1
   17    30    13 1
   18    31    24 1
   19    32     1 1
   20    32    25 1
   21    33    21 1
   22    33    26 1
   23    34    22 1
   24    34    27 1
   25    35    23 1
   26    35    28 1
   27    36    12 1
   28    36    24 1
   29    37    13 1
   30    37    15 1
   31    38    31 1
   32    39    20 1
   33    39    32 1
   34    40     2 1
   35    40    33 1
   36    41     3 1
   37    41    34 1
   38    42     4 1
   39    42    35 1
   40    43    38 1
   41    44     5 1
   42    44    17 1
   43    44    39 1
   44    45    10 1
   45    45    18 1
   46    45    40 1
   47    46    19 1
   48    46    41 1
   49    47    14 1
   50    47    16 1
   51    47    42 1
   52    48    38 1
   53    49    48 1
   54    50    49 1
   55    51    50 1
   56    52    51 1
   57    53    51 1
   58    54    53 1
   59    55    54 1
   60    56    55 1
   61    57    56 1
   62    58    56 1
   63    59    58 1
   64    60    59 1
   65    61    60 1
   66    62    61 1
   67    63    61 1
   68    64    27 1
   69    64    46 1
   70    65     5 1
   71    65    10 1
   72    65    64 1
   73    65    14 1
   74    66    23 1
   75    67    23 1
   76    68    23 1
   77    69    22 1
   78    70    22 1
   79    71    22 1
   80    72    21 1
   81    73    21 1
   82    74    21 1
   83    75    20 1
   84    76    20 1
   85    77    20 1
   86    78    15 1
   87    79    15 1
   88    80    15 1
   89    81     8 1
   90    82     8 1
   91    83     8 1
   92    84     7 1
   93    85     7 1
   94    86     6 1
   95    87     6 1
   96    88     3 1
   97    89     3 1
   98    90     1 1
   99    91     1 1
  100    92    63 1
  101    93    63 1
  102    94    63 1
  103    95    62 1
  104    96    62 1
  105    97    62 1
  106    98    60 1
  107    99    60 1
  108   100    59 1
  109   101    59 1
  110   102    58 1
  111   103    58 1
  112   104    57 1
  113   105    57 1
  114   106    57 1
  115   107    55 1
  116   108    55 1
  117   109    54 1
  118   110    54 1
  119   111    53 1
  120   112    53 1
  121   113    19 1
  122   114    18 1
  123   115    17 1
  124   116     9 1
  125   117     2 1
  126   118    52 1
  127   119    52 1
  128   120    52 1
  129   121    51 1
  130   122    50 1
  131   123    50 1
  132   124    49 1
  133   125    49 1
  134   126    48 1
  135   127    48 1
  136   128    43 1
  137   129    43 1
  138   130    43 1
  139   131    39 1
  140   132    32 1
  141   133    31 1
  142   134    61 1
  143   135    56 1
  144   136    24 1
  145   137    24 1
  146   139   138 1
  147   140   139 1
  148   141   140 1
  149   142   140 1
  150   143   142 1
  151   144   138 1
  152   144   143 1
  153   145   144 1
  154   146   145 1
  155   147   146 1
  156   148   147 1
  157   149   148 1
  158   150   149 1
  159   151   150 1
  160   152   151 1
  161   153   152 1
  162   154   138 1
  163   155   138 1
  164   156   143 1
  165   157   147 1
  166   158   151 1
  167   160   159 1
  168   161   160 1
  169   162   161 1
  170   163   161 1
  171   164   163 1
  172   165   159 1
  173   165   164 1
  174   166   165 1
  175   167   166 1
  176   168   167 1
  177   169   168 1
  178   170   169 1
  179   171   170 1
  180   172   171 1
  181   173   172 1
  182   174   153 1
  183   174   173 1
  184   175   159 1
  185   176   159 1
  186   177   164 1
  187   178   168 1
  188   179   172 1
  189   180   179 1
  190   181   179 1
  191   182   179 1
  192   183   178 1
  193   184   178 1
  194   185   178 1
  195   186   177 1
  196   187   177 1
  197   188   177 1
  198   189   176 1
  199   190   176 1
  200   191   176 1
  201   192   175 1
  202   193   175 1
  203   194   175 1
  204   195   160 1
  205   196   160 1
  206   197   158 1
  207   198   158 1
  208   199   158 1
  209   200   157 1
  210   201   157 1
  211   202   157 1
  212   203   156 1
  213   204   156 1
  214   205   156 1
  215   206   155 1
  216   207   155 1
  217   208   155 1
  218   209   154 1
  219   210   154 1
  220   211   154 1
  221   212   141 1
  222   213   146 1
  223   214   145 1
  224   215   142 1
  225   216   142 1
  226   217   174 1
  227   218   173 1
  228   219   171 1
  229   220   170 1
  230   221   169 1
  231   222   140 1
  232   223   167 1
  233   224   166 1
  234   225   165 1
  235   226   163 1
  236   227   161 1
  237   228   139 1
  238   229   139 1
  239   230   153 1
  240   231   152 1
  241   232   150 1
  242   233   149 1
  243   234   148 1
  244   235   162 1
  245   65    153 1
  246   65    174 1
@<TRIPOS>SUBSTRUCTURE
      1 CLA               1 ****               0 ****  **** 
      2 LUT             138 ****               0 ****  **** 
