@<TRIPOS>MOLECULE
Cpptraj generated mol2 file.
  235   246     2     0     0
SMALL
USER_CHARGES


@<TRIPOS>ATOM
      1 CAA        79.9390   58.8515   34.5156 a2         1 CLA     -0.055900
      2 CAB        79.7089   61.9549   43.6243 c8         1 CLA     -0.148500
      3 CAC        72.7038   58.3660   42.5995 a2         1 CLA     -0.012600
      4 CAD        75.2751   56.9175   35.0316 ck         1 CLA      0.398800
      5 NA         78.7098   58.9121   37.7797 ns         1 CLA     -0.225500
      6 CBA        81.2693   58.6976   33.6725 a2         1 CLA     -0.135000
      7 CBB        80.8220   61.8838   44.3882 c0         1 CLA     -0.395200
      8 CBC        72.7036   56.8402   42.5288 a3         1 CLA     -0.037700
      9 CBD        76.8277   57.1672   34.8211 a1         1 CLA     -0.053900
     10 NB         78.6003   60.1014   40.5009 nm         1 CLA     -0.295700
     11 OBD        74.4980   56.5296   34.1491 o2         1 CLA     -0.494600
     12 CGA        81.4469   57.3730   33.0647 c4         1 CLA      0.827000
     13 CGD        77.5038   55.8344   34.5448 c4         1 CLA      0.655300
     14 ND         75.8055   58.4475   38.1012 nm         1 CLA     -0.291600
     15 CED        77.2874   53.5235   34.9023 a3         1 CLA      0.005400
     16 CHA        77.2486   57.8449   36.1723 cs         1 CLA     -0.123800
     17 CHB        80.5825   59.8047   39.0795 aa         1 CLA     -0.291900
     18 CHC        77.1551   60.6381   42.3724 aa         1 CLA     -0.090400
     19 CHD        73.8576   58.3758   39.7058 aa         1 CLA     -0.052000
     20 CMA        81.8166   57.4652   37.6898 a3         1 CLA     -0.230700
     21 CMB        82.0833   61.5072   41.1838 a3         1 CLA     -0.180800
     22 CMC        74.6731   60.2979   44.3657 a3         1 CLA     -0.134000
     23 CMD        72.5085   57.1188   37.0601 a3         1 CLA     -0.141100
     24 C1         82.0077   55.0987   33.5346 a2         1 CLA      0.023000
     25 C1A        78.5137   58.1988   36.5761 ac         1 CLA     -0.015100
     26 C1B        79.9362   60.2871   40.2176 cr         1 CLA      0.054700
     27 C1C        75.9675   60.0322   42.0817 cn         1 CLA     -0.005600
     28 C1D        74.4426   58.1405   38.3866 ap         1 CLA     -0.047300
     29 O1A        81.1228   57.0070   31.9687 o2         1 CLA     -0.610800
     30 O1D        78.4896   55.5693   33.8398 o2         1 CLA     -0.558200
     31 C2         82.6824   54.2864   34.6024 c8         1 CLA     -0.325100
     32 C2A        79.8644   58.0280   35.8663 a1         1 CLA      0.098600
     33 C2B        80.6099   61.0863   41.2466 cb         1 CLA      0.088500
     34 C2C        74.7882   59.8540   42.9600 cb         1 CLA      0.053700
     35 C2D        73.8776   57.5129   37.2767 cb         1 CLA      0.058900
     36 O2A        81.8867   56.5044   33.9734 o1         1 CLA     -0.437200
     37 O2D        76.9207   54.8512   35.3010 o1         1 CLA     -0.357600
     38 C3         83.5268   53.2423   34.4449 c5         1 CLA      0.031200
     39 C3A        80.9544   58.4815   36.9542 a1         1 CLA      0.166800
     40 C3B        79.6146   61.3213   42.2649 cb         1 CLA      0.035000
     41 C3C        73.9256   59.0778   42.1930 cb         1 CLA     -0.089900
     42 C3D        74.9473   57.3597   36.3713 cb         1 CLA     -0.035900
     43 C4         83.0509   51.8472   34.1245 a3         1 CLA     -0.053300
     44 C4A        80.0731   59.1471   37.9512 ac         1 CLA      0.001800
     45 C4B        78.4140   60.7057   41.7636 cn         1 CLA     -0.020900
     46 C4C        74.4701   59.0104   40.8512 cr         1 CLA     -0.044400
     47 C4D        76.0896   57.9145   36.9264 c6         1 CLA     -0.046000
     48 C5         85.0330   53.3743   34.5270 a2         1 CLA     -0.070400
     49 C6         85.7074   54.4983   35.3008 a2         1 CLA      0.043900
     50 C7         85.3969   54.3365   36.8677 a2         1 CLA     -0.150000
     51 C8         85.4386   55.6462   37.6140 a1         1 CLA      0.064200
     52 C9         86.7636   56.4060   37.3613 a3         1 CLA     -0.259300
     53 C10        85.2237   55.7179   39.1574 a2         1 CLA     -0.071900
     54 C11        85.1944   57.1006   39.9125 a2         1 CLA      0.014500
     55 C12        84.9360   56.8257   41.4329 a2         1 CLA     -0.112100
     56 C13        84.8055   58.1180   42.4318 a1         1 CLA      0.089200
     57 C14        86.1588   58.8542   42.3471 a3         1 CLA     -0.239100
     58 C15        84.4629   57.8102   43.8978 a2         1 CLA     -0.102200
     59 C16        83.7687   58.8775   44.7102 a2         1 CLA      0.023900
     60 C17        84.1728   58.8219   46.2234 a2         1 CLA     -0.105700
     61 C18        83.5038   57.7156   47.0228 a1         1 CLA      0.206800
     62 C19        83.0999   56.3852   46.2816 a3         1 CLA     -0.280100
     63 C20        84.4107   57.3699   48.2896 a3         1 CLA     -0.280100
     64 NC         75.7148   59.5491   40.8499 nx         1 CLA     -0.309200
     65 MG         77.2371   59.4618   39.2064 mg         1 CLA      0.895000
     66 HMD3       72.2680   57.1278   35.9944 dc         1 CLA      0.064300
     67 HMD2       72.3362   56.1379   37.5247 dc         1 CLA      0.064300
     68 HMD1       71.8699   57.7725   37.5594 dc         1 CLA      0.064300
     69 HMC3       73.6057   60.0667   44.6355 dc         1 CLA      0.052100
     70 HMC2       75.3882   59.7824   44.9717 dc         1 CLA      0.052100
     71 HMC1       74.9148   61.3580   44.4755 dc         1 CLA      0.052100
     72 HMB3       82.1948   62.2493   40.2797 dc         1 CLA      0.063600
     73 HMB2       82.4492   61.9835   42.1446 dc         1 CLA      0.063600
     74 HMB1       82.7113   60.6690   41.0386 dc         1 CLA      0.063600
     75 HMA3       81.1553   56.7536   38.1108 dc         1 CLA      0.058300
     76 HMA2       82.3865   56.8426   36.9619 dc         1 CLA      0.058300
     77 HMA1       82.3530   57.8527   38.4422 dc         1 CLA      0.058300
     78 HED3       76.9589   53.3015   33.8894 dc         1 CLA      0.079300
     79 HED2       78.3347   53.3168   35.0240 dc         1 CLA      0.079300
     80 HED1       76.6905   52.9110   35.5424 dc         1 CLA      0.079300
     81 HBC3       71.8248   56.5258   43.0859 dc         1 CLA      0.016300
     82 HBC2       72.4591   56.4969   41.4993 dc         1 CLA      0.016300
     83 HBC1       73.5513   56.3642   42.9274 dc         1 CLA      0.016300
     84 HBB2       80.8622   62.2304   45.4232 da         1 CLA      0.183000
     85 HBB1       81.7705   61.3709   44.1528 da         1 CLA      0.183000
     86 HBA2       81.2647   59.3788   32.8316 dc         1 CLA      0.029400
     87 HBA1       82.0977   58.9876   34.3146 dc         1 CLA      0.029400
     88 HAC2       72.4025   58.6566   43.6138 dc         1 CLA      0.029300
     89 HAC1       71.8848   58.6602   41.9611 dc         1 CLA      0.029300
     90 HAA2       79.0945   58.5618   33.9231 dc         1 CLA      0.028700
     91 HAA1       79.6529   59.8975   34.7487 dc         1 CLA      0.028700
     92 H203       85.3407   56.9136   48.0241 dc         1 CLA      0.065600
     93 H202       84.7847   58.2574   48.7959 dc         1 CLA      0.065600
     94 H201       83.8919   56.6488   48.8868 dc         1 CLA      0.065600
     95 H193       82.5030   55.7532   46.9742 dc         1 CLA      0.065600
     96 H192       82.4414   56.6765   45.4667 dc         1 CLA      0.065600
     97 H191       83.9561   55.8390   45.9331 dc         1 CLA      0.065600
     98 H172       85.2304   58.6087   46.3882 dc         1 CLA      0.027600
     99 H171       83.9357   59.6882   46.7520 dc         1 CLA      0.027600
    100 H162       84.0499   59.8627   44.3555 dc         1 CLA      0.002900
    101 H161       82.7040   58.7665   44.6365 dc         1 CLA      0.002900
    102 H152       83.7799   56.9732   43.8457 dc         1 CLA      0.029100
    103 H151       85.3973   57.5434   44.3192 dc         1 CLA      0.029100
    104 H143       86.2252   59.2201   41.3431 dc         1 CLA      0.063600
    105 H142       86.1256   59.7186   43.0310 dc         1 CLA      0.063600
    106 H141       86.8990   58.0925   42.5051 dc         1 CLA      0.063600
    107 H122       84.0143   56.2824   41.6251 dc         1 CLA      0.032500
    108 H121       85.8213   56.2195   41.7934 dc         1 CLA      0.032500
    109 H112       86.1766   57.5186   39.8722 dc         1 CLA      0.006600
    110 H111       84.4675   57.7579   39.4264 dc         1 CLA      0.006600
    111 H102       84.2258   55.3503   39.3282 dc         1 CLA      0.024100
    112 H101       85.9291   55.0340   39.6586 dc         1 CLA      0.024100
    113 HHD        72.8668   58.0197   39.9233 da         1 CLA      0.174300
    114 HHC        76.9957   61.0677   43.4036 da         1 CLA      0.136800
    115 HHB        81.6880   60.0117   38.9437 da         1 CLA      0.138300
    116 HBD        76.9087   57.8624   34.0368 dc         1 CLA      0.107700
    117 HAB        78.7372   62.3053   44.0838 da         1 CLA      0.155200
    118 H93        86.9781   56.5526   36.3326 dc         1 CLA      0.069500
    119 H92        86.6986   57.4409   37.7583 dc         1 CLA      0.069500
    120 H91        87.6150   55.8343   37.7449 dc         1 CLA      0.069500
    121 H8         84.7225   56.2101   37.0602 dc         1 CLA      0.029300
    122 H72        84.4481   53.8608   36.9658 dc         1 CLA      0.044400
    123 H71        86.1813   53.8426   37.4207 dc         1 CLA      0.044400
    124 H62        86.7656   54.2991   35.2890 dc         1 CLA      0.015600
    125 H61        85.3711   55.4147   34.9301 dc         1 CLA      0.015600
    126 H52        85.4539   52.4586   35.0800 dc         1 CLA      0.033200
    127 H51        85.3500   53.3233   33.5085 dc         1 CLA      0.033200
    128 H43        81.9488   51.8077   34.1148 dc         1 CLA      0.037000
    129 H42        83.3142   51.6068   33.1469 dc         1 CLA      0.037000
    130 H41        83.3117   51.1714   34.8868 dc         1 CLA      0.037000
    131 H3A        81.5575   59.2961   36.5415 dc         1 CLA      0.041100
    132 H2A        79.9905   56.9425   35.7328 dc         1 CLA      0.083100
    133 H2         82.2926   54.4554   35.5933 da         1 CLA      0.180900
    134 H18        82.5643   58.1650   47.4230 dc         1 CLA     -0.003900
    135 H13        84.0088   58.7327   42.0444 dc         1 CLA      0.019700
    136 H12        81.0129   54.6567   33.3117 dc         1 CLA      0.120400
    137 H11        82.5813   55.0443   32.6307 dc         1 CLA      0.120400
    138 C1         69.3001   62.0343   50.1311 Z1         2 LUT      0.509236
    139 C2         67.7638   61.8986   50.5415 Z2         2 LUT     -0.434695
    140 C3         67.0141   63.1759   50.9135 Z3         2 LUT      0.437453
    141 O3         67.3249   63.6431   52.1855 S1         2 LUT     -0.547129
    142 C4         67.5071   64.3317   50.0104 Z4         2 LUT     -0.468603
    143 C5         68.2166   63.9173   48.7237 Z5         2 LUT      0.279246
    144 C6         69.2042   62.9122   48.7858 Z6         2 LUT     -0.305473
    145 C7         69.5717   62.2383   47.5898 Z7         2 LUT      0.069402
    146 C8         70.4258   62.7968   46.7005 Z8         2 LUT     -0.191631
    147 C9         70.7844   62.3238   45.3676 Z9         2 LUT      0.196698
    148 C10        71.7615   63.0857   44.7118 Y1         2 LUT     -0.208611
    149 C11        72.5698   62.8965   43.4775 Y2         2 LUT      0.030784
    150 C12        73.5790   63.7409   43.1695 Y3         2 LUT     -0.220316
    151 C13        74.4481   63.5293   42.0407 Y4         2 LUT      0.215937
    152 C14        75.6902   64.1436   42.1059 Y5         2 LUT     -0.185793
    153 C15        76.8927   64.0514   41.3033 Y6         2 LUT     -0.057835
    154 C16        69.7820   60.6418   49.9474 Y7         2 LUT     -0.405615
    155 C17        70.2081   62.6548   51.3047 Y7         2 LUT     -0.405615
    156 C18        67.7556   64.7509   47.5704 Y9         2 LUT     -0.369639
    157 C19        70.2646   61.0432   44.8078 W1         2 LUT     -0.333362
    158 C20        73.9893   62.7335   40.8803 W2         2 LUT     -0.323439
    159 C21        88.5363   65.8782   34.8893 Z1         2 LUT      0.406104
    160 C22        88.7985   65.6981   33.3961 Z2         2 LUT     -0.404965
    161 C23        88.3785   66.7446   32.3546 Z3         2 LUT      0.391255
    162 O23        88.6273   66.0596   31.1539 S1         2 LUT     -0.528210
    163 C24        86.9956   67.2754   32.6173 W6         2 LUT     -0.258361
    164 C25        86.2960   66.8852   33.6718 Z5         2 LUT      0.133546
    165 C26        86.9309   66.0932   34.9040 W8         2 LUT     -0.147008
    166 C27        86.4306   66.5563   36.2612 Z7         2 LUT      0.023843
    167 C28        85.2949   66.1446   36.7618 Z8         2 LUT     -0.216987
    168 C29        84.5522   66.6694   37.9597 Z9         2 LUT      0.206524
    169 C30        83.3980   65.9766   38.2131 Y1         2 LUT     -0.215556
    170 C31        82.4520   66.0752   39.3683 Y2         2 LUT      0.025142
    171 C32        81.3086   65.3626   39.6197 Y3         2 LUT     -0.212209
    172 C33        80.3332   65.5301   40.6781 Y4         2 LUT      0.240937
    173 C34        79.1837   64.6926   40.6663 Y5         2 LUT     -0.218862
    174 C35        77.9986   64.7274   41.5100 Y6         2 LUT     -0.023547
    175 C36        89.5229   67.0106   35.3238 Y7         2 LUT     -0.393485
    176 C37        88.8000   64.5270   35.7380 Y7         2 LUT     -0.393485
    177 C38        84.8166   67.1814   33.7658 Y9         2 LUT     -0.387526
    178 C39        85.0426   67.8997   38.7208 W1         2 LUT     -0.322618
    179 C40        80.7861   66.4917   41.8258 W2         2 LUT     -0.358472
    180 H403       81.7768   66.3484   42.1021 R7         2 LUT      0.097720
    181 H402       80.6169   67.5276   41.6157 R7         2 LUT      0.097720
    182 H401       80.1754   66.2449   42.7465 R7         2 LUT      0.097720
    183 H393       85.5445   67.7437   39.6788 R4         2 LUT      0.082505
    184 H392       85.7291   68.4367   38.0738 R4         2 LUT      0.082505
    185 H391       84.1684   68.6251   38.8705 R4         2 LUT      0.082505
    186 H383       84.5459   67.9459   34.4970 R1         2 LUT      0.104030
    187 H382       84.3809   67.5258   32.8411 R1         2 LUT      0.104030
    188 H381       84.3416   66.2222   34.0329 R1         2 LUT      0.104030
    189 H373       89.7416   64.0187   35.6437 T4         2 LUT      0.089537
    190 H372       88.4885   64.6846   36.7785 T4         2 LUT      0.089537
    191 H371       88.1334   63.7522   35.3431 T4         2 LUT      0.089537
    192 H363       89.5407   67.1987   36.4050 T4         2 LUT      0.089537
    193 H362       90.6728   66.8754   35.0074 T4         2 LUT      0.089537
    194 H361       89.2993   67.9982   34.7639 T4         2 LUT      0.089537
    195 H222       89.8503   65.3611   33.3621 U2         2 LUT      0.127376
    196 H221       88.2102   64.7912   33.1716 U2         2 LUT      0.127376
    197 H203       73.0506   62.9349   40.3387 R7         2 LUT      0.087068
    198 H202       74.7078   62.7329   40.1048 R7         2 LUT      0.087068
    199 H201       73.9670   61.7752   41.2262 R7         2 LUT      0.087068
    200 H193       71.1339   60.3024   44.6451 R4         2 LUT      0.089716
    201 H192       69.6504   60.4325   45.4077 R4         2 LUT      0.089716
    202 H191       69.8245   61.0862   43.7669 R4         2 LUT      0.089716
    203 H183       68.0111   64.3490   46.6351 R1         2 LUT      0.094572
    204 H182       66.6462   64.7410   47.6446 R1         2 LUT      0.094572
    205 H181       68.1982   65.7365   47.6486 R1         2 LUT      0.094572
    206 H173       71.2811   62.3919   51.1501 T4         2 LUT      0.093752
    207 H172       70.1925   63.7819   51.3144 T4         2 LUT      0.093752
    208 H171       69.8964   62.1198   52.2468 T4         2 LUT      0.093752
    209 H163       69.1993   60.0604   49.2302 T4         2 LUT      0.093752
    210 H162       70.8423   60.6306   49.6911 T4         2 LUT      0.093752
    211 H161       69.6805   60.1442   50.9018 T4         2 LUT      0.093752
    212 HO3        66.9783   63.1115   52.9063 Q1         2 LUT      0.300121
    213 H8         70.7652   63.7751   46.9966 U7         2 LUT      0.080784
    214 H7         69.1563   61.2788   47.2819 U6         2 LUT      0.042190
    215 H42        66.5445   64.8403   49.7477 U5         2 LUT      0.145166
    216 H41        68.0315   65.1029   50.4613 U5         2 LUT      0.145166
    217 H35        77.8416   65.5133   42.3534 T3         2 LUT      0.077919
    218 H34        79.1003   63.9060   39.8782 T2         2 LUT      0.073626
    219 H32        81.1135   64.5931   38.8433 T1         2 LUT      0.092510
    220 H31        82.7339   66.8386   39.9977 U9         2 LUT      0.070048
    221 H30        83.0073   65.1730   37.5744 U8         2 LUT      0.085442
    222 H3         65.9176   63.1212   50.8762 U3         2 LUT     -0.031596
    223 H28        84.6789   65.3993   36.2740 U7         2 LUT      0.084728
    224 H27        87.0348   67.3594   36.7786 U6         2 LUT      0.087291
    225 H26        86.5221   65.0398   34.7872 Q6         2 LUT      0.075325
    226 H24        86.5305   67.9355   31.8798 Q5         2 LUT      0.094482
    227 H23        89.1118   67.6298   32.4893 U3         2 LUT     -0.024869
    228 H22        67.1454   61.5362   49.7138 U2         2 LUT      0.127376
    229 H21        67.5365   61.2570   51.3929 U2         2 LUT      0.127376
    230 H15        76.8855   63.2685   40.4659 T3         2 LUT      0.093200
    231 H14        75.9796   64.7296   43.0521 T2         2 LUT      0.068865
    232 H12        73.7985   64.5826   43.7756 T1         2 LUT      0.095507
    233 H11        72.2952   62.0808   42.7623 U9         2 LUT      0.068930
    234 H10        72.1212   63.9225   45.2641 U8         2 LUT      0.083911
    235 H1         88.3810   66.6417   30.4431 Q1         2 LUT      0.297311
@<TRIPOS>BOND
    1     6     1 1
    2     7     2 1
    3     8     3 1
    4     9     4 1
    5    11     4 1
    6    12     6 1
    7    13     9 1
    8    16     9 1
    9    25     5 1
   10    25    16 1
   11    26    10 1
   12    26    17 1
   13    27    18 1
   14    28    14 1
   15    28    19 1
   16    29    12 1
   17    30    13 1
   18    31    24 1
   19    32     1 1
   20    32    25 1
   21    33    21 1
   22    33    26 1
   23    34    22 1
   24    34    27 1
   25    35    23 1
   26    35    28 1
   27    36    12 1
   28    36    24 1
   29    37    13 1
   30    37    15 1
   31    38    31 1
   32    39    20 1
   33    39    32 1
   34    40     2 1
   35    40    33 1
   36    41     3 1
   37    41    34 1
   38    42     4 1
   39    42    35 1
   40    43    38 1
   41    44     5 1
   42    44    17 1
   43    44    39 1
   44    45    10 1
   45    45    18 1
   46    45    40 1
   47    46    19 1
   48    46    41 1
   49    47    14 1
   50    47    16 1
   51    47    42 1
   52    48    38 1
   53    49    48 1
   54    50    49 1
   55    51    50 1
   56    52    51 1
   57    53    51 1
   58    54    53 1
   59    55    54 1
   60    56    55 1
   61    57    56 1
   62    58    56 1
   63    59    58 1
   64    60    59 1
   65    61    60 1
   66    62    61 1
   67    63    61 1
   68    64    27 1
   69    64    46 1
   70    65     5 1
   71    65    10 1
   72    65    64 1
   73    65    14 1
   74    66    23 1
   75    67    23 1
   76    68    23 1
   77    69    22 1
   78    70    22 1
   79    71    22 1
   80    72    21 1
   81    73    21 1
   82    74    21 1
   83    75    20 1
   84    76    20 1
   85    77    20 1
   86    78    15 1
   87    79    15 1
   88    80    15 1
   89    81     8 1
   90    82     8 1
   91    83     8 1
   92    84     7 1
   93    85     7 1
   94    86     6 1
   95    87     6 1
   96    88     3 1
   97    89     3 1
   98    90     1 1
   99    91     1 1
  100    92    63 1
  101    93    63 1
  102    94    63 1
  103    95    62 1
  104    96    62 1
  105    97    62 1
  106    98    60 1
  107    99    60 1
  108   100    59 1
  109   101    59 1
  110   102    58 1
  111   103    58 1
  112   104    57 1
  113   105    57 1
  114   106    57 1
  115   107    55 1
  116   108    55 1
  117   109    54 1
  118   110    54 1
  119   111    53 1
  120   112    53 1
  121   113    19 1
  122   114    18 1
  123   115    17 1
  124   116     9 1
  125   117     2 1
  126   118    52 1
  127   119    52 1
  128   120    52 1
  129   121    51 1
  130   122    50 1
  131   123    50 1
  132   124    49 1
  133   125    49 1
  134   126    48 1
  135   127    48 1
  136   128    43 1
  137   129    43 1
  138   130    43 1
  139   131    39 1
  140   132    32 1
  141   133    31 1
  142   134    61 1
  143   135    56 1
  144   136    24 1
  145   137    24 1
  146   139   138 1
  147   140   139 1
  148   141   140 1
  149   142   140 1
  150   143   142 1
  151   144   138 1
  152   144   143 1
  153   145   144 1
  154   146   145 1
  155   147   146 1
  156   148   147 1
  157   149   148 1
  158   150   149 1
  159   151   150 1
  160   152   151 1
  161   153   152 1
  162   154   138 1
  163   155   138 1
  164   156   143 1
  165   157   147 1
  166   158   151 1
  167   160   159 1
  168   161   160 1
  169   162   161 1
  170   163   161 1
  171   164   163 1
  172   165   159 1
  173   165   164 1
  174   166   165 1
  175   167   166 1
  176   168   167 1
  177   169   168 1
  178   170   169 1
  179   171   170 1
  180   172   171 1
  181   173   172 1
  182   174   153 1
  183   174   173 1
  184   175   159 1
  185   176   159 1
  186   177   164 1
  187   178   168 1
  188   179   172 1
  189   180   179 1
  190   181   179 1
  191   182   179 1
  192   183   178 1
  193   184   178 1
  194   185   178 1
  195   186   177 1
  196   187   177 1
  197   188   177 1
  198   189   176 1
  199   190   176 1
  200   191   176 1
  201   192   175 1
  202   193   175 1
  203   194   175 1
  204   195   160 1
  205   196   160 1
  206   197   158 1
  207   198   158 1
  208   199   158 1
  209   200   157 1
  210   201   157 1
  211   202   157 1
  212   203   156 1
  213   204   156 1
  214   205   156 1
  215   206   155 1
  216   207   155 1
  217   208   155 1
  218   209   154 1
  219   210   154 1
  220   211   154 1
  221   212   141 1
  222   213   146 1
  223   214   145 1
  224   215   142 1
  225   216   142 1
  226   217   174 1
  227   218   173 1
  228   219   171 1
  229   220   170 1
  230   221   169 1
  231   222   140 1
  232   223   167 1
  233   224   166 1
  234   225   165 1
  235   226   163 1
  236   227   161 1
  237   228   139 1
  238   229   139 1
  239   230   153 1
  240   231   152 1
  241   232   150 1
  242   233   149 1
  243   234   148 1
  244   235   162 1
  245   65    153 1
  246   65    174 1
@<TRIPOS>SUBSTRUCTURE
      1 CLA               1 ****               0 ****  **** 
      2 LUT             138 ****               0 ****  **** 
