@<TRIPOS>MOLECULE
Cpptraj generated mol2 file.
  235   246     2     0     0
SMALL
USER_CHARGES


@<TRIPOS>ATOM
      1 CAA        79.3387   59.2264   34.3583 a2         1 CLA     -0.055900
      2 CAB        78.7659   61.6996   43.7884 c8         1 CLA     -0.148500
      3 CAC        72.0992   57.4539   42.5654 a2         1 CLA     -0.012600
      4 CAD        74.8059   56.8690   34.7178 ck         1 CLA      0.398800
      5 NA         78.1044   58.8990   37.7759 ns         1 CLA     -0.225500
      6 CBA        80.6804   59.1883   33.5762 a2         1 CLA     -0.135000
      7 CBB        79.7428   61.6969   44.7328 c0         1 CLA     -0.395200
      8 CBC        72.1216   55.9242   42.2598 a3         1 CLA     -0.037700
      9 CBD        76.4215   57.0622   34.6083 a1         1 CLA     -0.053900
     10 NB         77.8559   59.9762   40.5292 nm         1 CLA     -0.295700
     11 OBD        74.1169   56.5844   33.7568 o2         1 CLA     -0.494600
     12 CGA        80.9750   57.9167   32.8354 c4         1 CLA      0.827000
     13 CGD        77.1707   55.8242   34.1985 c4         1 CLA      0.655300
     14 ND         75.2935   57.9612   38.1021 nm         1 CLA     -0.291600
     15 CED        77.2033   53.4256   33.9445 a3         1 CLA      0.005400
     16 CHA        76.8044   57.6981   36.0107 cs         1 CLA     -0.123800
     17 CHB        79.7789   60.1212   39.0020 aa         1 CLA     -0.291900
     18 CHC        76.5503   59.9083   42.5479 aa         1 CLA     -0.090400
     19 CHD        73.2867   57.6544   39.5188 aa         1 CLA     -0.052000
     20 CMA        81.3733   58.1125   37.3759 a3         1 CLA     -0.230700
     21 CMB        81.0189   61.8270   41.3789 a3         1 CLA     -0.180800
     22 CMC        74.2339   58.7521   44.4912 a3         1 CLA     -0.134000
     23 CMD        72.1394   56.5961   36.7996 a3         1 CLA     -0.141100
     24 C1         81.4651   55.6191   33.4458 a2         1 CLA      0.023000
     25 C1A        77.9690   58.3102   36.4921 ac         1 CLA     -0.015100
     26 C1B        79.1523   60.4536   40.2374 cr         1 CLA      0.054700
     27 C1C        75.4144   59.1683   42.0810 cn         1 CLA     -0.005600
     28 C1D        73.9337   57.5937   38.2239 ap         1 CLA     -0.047300
     29 O1A        80.6373   57.5422   31.6843 o2         1 CLA     -0.610800
     30 O1D        78.1817   56.0312   33.5649 o2         1 CLA     -0.558200
     31 C2         82.2237   54.9298   34.5836 c8         1 CLA     -0.325100
     32 C2A        79.3581   58.4467   35.7194 a1         1 CLA      0.098600
     33 C2B        79.7179   61.0923   41.4104 cb         1 CLA      0.088500
     34 C2C        74.2995   58.7175   42.9499 cb         1 CLA      0.053700
     35 C2D        73.4970   57.0893   37.0103 cb         1 CLA      0.058900
     36 O2A        81.4916   57.0599   33.8008 o1         1 CLA     -0.437200
     37 O2D        76.7022   54.6628   34.6019 o1         1 CLA     -0.357600
     38 C3         83.1383   53.8787   34.6858 c5         1 CLA      0.031200
     39 C3A        80.2787   59.0073   36.8451 a1         1 CLA      0.166800
     40 C3B        78.7983   60.9802   42.4393 cb         1 CLA      0.035000
     41 C3C        73.3768   58.1056   42.0973 cb         1 CLA     -0.089900
     42 C3D        74.5016   57.1823   36.1278 cb         1 CLA     -0.035900
     43 C4         82.6445   52.4387   35.0332 a3         1 CLA     -0.053300
     44 C4A        79.3520   59.4602   37.9013 ac         1 CLA      0.001800
     45 C4B        77.6565   60.2402   41.8382 cn         1 CLA     -0.020900
     46 C4C        73.9383   58.1274   40.6672 cr         1 CLA     -0.044400
     47 C4D        75.6801   57.6098   36.8415 c6         1 CLA     -0.046000
     48 C5         84.5668   54.1942   34.5005 a2         1 CLA     -0.070400
     49 C6         85.2399   55.2556   35.4524 a2         1 CLA      0.043900
     50 C7         85.0137   54.9365   36.9830 a2         1 CLA     -0.150000
     51 C8         85.8117   55.8846   37.9171 a1         1 CLA      0.064200
     52 C9         87.3290   55.7653   37.7483 a3         1 CLA     -0.259300
     53 C10        85.4292   55.7487   39.3839 a2         1 CLA     -0.071900
     54 C11        83.9871   56.0839   39.7038 a2         1 CLA      0.014500
     55 C12        83.7248   56.0894   41.2341 a2         1 CLA     -0.112100
     56 C13        82.2355   56.5411   41.6261 a1         1 CLA      0.089200
     57 C14        82.0023   58.0220   41.4203 a3         1 CLA     -0.239100
     58 C15        81.7900   56.1790   43.0753 a2         1 CLA     -0.102200
     59 C16        82.5913   56.8648   44.1952 a2         1 CLA      0.023900
     60 C17        82.2234   56.2020   45.5705 a2         1 CLA     -0.105700
     61 C18        82.8217   57.0645   46.7560 a1         1 CLA      0.206800
     62 C19        82.5364   56.2225   47.9601 a3         1 CLA     -0.280100
     63 C20        84.2990   57.3454   46.6057 a3         1 CLA     -0.280100
     64 NC         75.1479   58.7399   40.7423 nx         1 CLA     -0.309200
     65 MG         76.5660   59.0784   39.2306 mg         1 CLA      0.895000
     66 HMD3       71.9847   56.3158   35.7410 dc         1 CLA      0.064300
     67 HMD2       71.9869   55.6841   37.3924 dc         1 CLA      0.064300
     68 HMD1       71.4942   57.4261   37.0780 dc         1 CLA      0.064300
     69 HMC3       73.7607   57.8637   44.8458 dc         1 CLA      0.052100
     70 HMC2       75.1486   58.8913   45.1082 dc         1 CLA      0.052100
     71 HMC1       73.6537   59.6737   44.6450 dc         1 CLA      0.052100
     72 HMB3       81.8536   61.1409   41.6552 dc         1 CLA      0.063600
     73 HMB2       81.3078   62.0819   40.3715 dc         1 CLA      0.063600
     74 HMB1       81.0732   62.5882   42.1270 dc         1 CLA      0.063600
     75 HMA3       82.0247   57.6295   36.6723 dc         1 CLA      0.058300
     76 HMA2       82.1572   58.6770   37.9507 dc         1 CLA      0.058300
     77 HMA1       80.9034   57.3719   38.0299 dc         1 CLA      0.058300
     78 HED3       78.2261   53.1820   34.1178 dc         1 CLA      0.079300
     79 HED2       76.6064   52.5954   34.3730 dc         1 CLA      0.079300
     80 HED1       77.1060   53.6044   32.8540 dc         1 CLA      0.079300
     81 HBC3       72.2294   55.5458   41.2042 dc         1 CLA      0.016300
     82 HBC2       72.9609   55.4368   42.7533 dc         1 CLA      0.016300
     83 HBC1       71.2834   55.4811   42.7852 dc         1 CLA      0.016300
     84 HBB2       79.6884   62.2944   45.6784 da         1 CLA      0.183000
     85 HBB1       80.6311   61.0414   44.6045 da         1 CLA      0.183000
     86 HBA2       80.5254   59.8789   32.8189 dc         1 CLA      0.029400
     87 HBA1       81.5751   59.3250   34.1594 dc         1 CLA      0.029400
     88 HAC2       71.9370   57.7096   43.6291 dc         1 CLA      0.029300
     89 HAC1       71.2881   57.9009   41.9907 dc         1 CLA      0.029300
     90 HAA2       78.6051   58.8805   33.6057 dc         1 CLA      0.028700
     91 HAA1       79.1079   60.3103   34.5753 dc         1 CLA      0.028700
     92 H203       84.4702   57.9388   45.6766 dc         1 CLA      0.065600
     93 H202       84.5426   57.8711   47.5261 dc         1 CLA      0.065600
     94 H201       84.8584   56.4707   46.6078 dc         1 CLA      0.065600
     95 H193       82.8969   56.7654   48.7565 dc         1 CLA      0.065600
     96 H192       81.4919   55.8839   47.9217 dc         1 CLA      0.065600
     97 H191       83.1812   55.3318   47.9612 dc         1 CLA      0.065600
     98 H172       81.1489   56.0858   45.7407 dc         1 CLA      0.027600
     99 H171       82.6778   55.2359   45.5845 dc         1 CLA      0.027600
    100 H162       83.6272   56.7212   43.9743 dc         1 CLA      0.002900
    101 H161       82.2988   57.9271   44.2238 dc         1 CLA      0.002900
    102 H152       80.6997   56.2118   43.1436 dc         1 CLA      0.029100
    103 H151       82.1221   55.1187   43.1575 dc         1 CLA      0.029100
    104 H143       81.0359   58.3830   41.6768 dc         1 CLA      0.063600
    105 H142       82.6750   58.5344   42.0881 dc         1 CLA      0.063600
    106 H141       82.2247   58.3642   40.4119 dc         1 CLA      0.063600
    107 H122       83.8189   55.0668   41.5077 dc         1 CLA      0.032500
    108 H121       84.5176   56.7317   41.6329 dc         1 CLA      0.032500
    109 H112       83.6421   57.0174   39.3928 dc         1 CLA      0.006600
    110 H111       83.2569   55.3439   39.2655 dc         1 CLA      0.006600
    111 H102       85.5736   54.7381   39.7627 dc         1 CLA      0.024100
    112 H101       86.0274   56.4484   39.9974 dc         1 CLA      0.024100
    113 HHD        72.2507   57.3781   39.5262 da         1 CLA      0.174300
    114 HHC        76.4556   60.2432   43.5714 da         1 CLA      0.136800
    115 HHB        80.7890   60.3686   38.8769 da         1 CLA      0.138300
    116 HBD        76.6313   57.7777   33.8435 dc         1 CLA      0.107700
    117 HAB        77.9301   62.2987   44.0762 da         1 CLA      0.155200
    118 H93        87.5271   54.6950   37.6215 dc         1 CLA      0.069500
    119 H92        87.7400   56.2891   36.8459 dc         1 CLA      0.069500
    120 H91        87.7893   56.1128   38.6591 dc         1 CLA      0.069500
    121 H8         85.5993   56.9021   37.6676 dc         1 CLA      0.029300
    122 H72        84.0022   55.2000   37.1660 dc         1 CLA      0.044400
    123 H71        85.2185   53.8680   37.1262 dc         1 CLA      0.044400
    124 H62        86.3094   55.3004   35.2668 dc         1 CLA      0.015600
    125 H61        84.7310   56.1806   35.2366 dc         1 CLA      0.015600
    126 H52        85.1642   53.3731   34.6298 dc         1 CLA      0.033200
    127 H51        84.5437   54.5500   33.5011 dc         1 CLA      0.033200
    128 H43        81.5332   52.5163   35.1473 dc         1 CLA      0.037000
    129 H42        82.8719   51.7857   34.2468 dc         1 CLA      0.037000
    130 H41        82.9613   52.0006   36.0555 dc         1 CLA      0.037000
    131 H3A        80.7549   59.9190   36.5432 dc         1 CLA      0.041100
    132 H2A        79.7236   57.4630   35.3819 dc         1 CLA      0.083100
    133 H2         82.0728   55.4295   35.5719 da         1 CLA      0.180900
    134 H18        82.3374   58.0307   46.7952 dc         1 CLA     -0.003900
    135 H13        81.5079   56.0328   40.9796 dc         1 CLA      0.019700
    136 H12        80.4258   55.2874   33.3289 dc         1 CLA      0.120400
    137 H11        81.9978   55.3741   32.5128 dc         1 CLA      0.120400
    138 C1         69.0929   61.7128   50.1384 Z1         2 LUT      0.509236
    139 C2         67.7357   61.3999   50.7991 Z2         2 LUT     -0.434695
    140 C3         66.7818   62.5795   51.1709 Z3         2 LUT      0.437453
    141 O3         66.9888   63.0328   52.5369 S1         2 LUT     -0.547129
    142 C4         66.9872   63.7659   50.3050 Z4         2 LUT     -0.468603
    143 C5         67.5501   63.4226   48.9563 Z5         2 LUT      0.279246
    144 C6         68.5976   62.5246   48.8315 Z6         2 LUT     -0.305473
    145 C7         68.8895   61.9729   47.4908 Z7         2 LUT      0.069402
    146 C8         70.0644   62.0771   46.8292 Z8         2 LUT     -0.191631
    147 C9         70.4601   61.6161   45.5066 Z9         2 LUT      0.196698
    148 C10        71.6091   62.2146   45.0163 Y1         2 LUT     -0.208611
    149 C11        72.1674   62.0613   43.6341 Y2         2 LUT      0.030784
    150 C12        73.3011   62.7604   43.2319 Y3         2 LUT     -0.220316
    151 C13        74.1483   62.8576   42.0291 Y4         2 LUT      0.215937
    152 C14        75.2701   63.5691   42.0531 Y5         2 LUT     -0.185793
    153 C15        76.3205   63.5345   41.0644 Y6         2 LUT     -0.057835
    154 C16        69.8843   60.4349   49.9594 Y7         2 LUT     -0.405615
    155 C17        69.7881   62.5702   51.2007 Y7         2 LUT     -0.405615
    156 C18        66.9923   64.1987   47.8303 Y9         2 LUT     -0.369639
    157 C19        69.5858   60.6045   44.8092 W1         2 LUT     -0.333362
    158 C20        73.5873   62.2988   40.7149 W2         2 LUT     -0.323439
    159 C21        87.5492   65.6033   34.8445 Z1         2 LUT      0.406104
    160 C22        88.2729   65.4363   33.4924 Z2         2 LUT     -0.404965
    161 C23        88.4502   66.6900   32.7351 Z3         2 LUT      0.391255
    162 O23        89.2897   66.2982   31.5811 S1         2 LUT     -0.528210
    163 C24        87.1559   67.3473   32.4964 W6         2 LUT     -0.258361
    164 C25        86.1072   67.2648   33.2668 Z5         2 LUT      0.133546
    165 C26        86.2141   66.3513   34.4405 W8         2 LUT     -0.147008
    166 C27        85.5277   66.8991   35.6694 Z7         2 LUT      0.023843
    167 C28        84.5024   66.3538   36.3817 Z8         2 LUT     -0.216987
    168 C29        83.6191   66.8225   37.4560 Z9         2 LUT      0.206524
    169 C30        82.6339   65.9877   37.8596 Y1         2 LUT     -0.215556
    170 C31        81.7089   66.1094   38.9673 Y2         2 LUT      0.025142
    171 C32        80.6917   65.1795   39.2496 Y3         2 LUT     -0.212209
    172 C33        79.6529   65.1866   40.2701 Y4         2 LUT      0.240937
    173 C34        78.6892   64.2313   40.3251 Y5         2 LUT     -0.218862
    174 C35        77.4908   64.2787   41.1475 Y6         2 LUT     -0.023547
    175 C36        88.3375   66.5586   35.7485 Y7         2 LUT     -0.393485
    176 C37        87.3397   64.2932   35.5732 Y7         2 LUT     -0.393485
    177 C38        84.7373   67.8596   32.9155 Y9         2 LUT     -0.387526
    178 C39        84.0553   68.1015   38.1384 W1         2 LUT     -0.322618
    179 C40        79.9722   66.1525   41.4036 W2         2 LUT     -0.358472
    180 H403       80.0326   67.1806   41.0081 R7         2 LUT      0.097720
    181 H402       79.2908   66.1710   42.2071 R7         2 LUT      0.097720
    182 H401       80.9372   65.9622   41.9524 R7         2 LUT      0.097720
    183 H393       83.7535   69.0379   37.7706 R4         2 LUT      0.082505
    184 H392       83.7423   68.1143   39.1189 R4         2 LUT      0.082505
    185 H391       85.1098   68.1653   38.2447 R4         2 LUT      0.082505
    186 H383       84.2385   68.3111   33.8414 R1         2 LUT      0.104030
    187 H382       84.7642   68.7060   32.1969 R1         2 LUT      0.104030
    188 H381       84.0183   67.0555   32.5757 R1         2 LUT      0.104030
    189 H373       86.6892   63.6072   35.0232 T4         2 LUT      0.089537
    190 H372       88.2601   63.7083   35.7586 T4         2 LUT      0.089537
    191 H371       87.0134   64.4207   36.5791 T4         2 LUT      0.089537
    192 H363       87.8848   66.5990   36.7206 T4         2 LUT      0.089537
    193 H362       89.4289   66.2582   35.8900 T4         2 LUT      0.089537
    194 H361       88.3251   67.5575   35.3156 T4         2 LUT      0.089537
    195 H222       89.2616   65.1441   33.7577 U2         2 LUT      0.127376
    196 H221       87.7219   64.6414   32.9622 U2         2 LUT      0.127376
    197 H203       72.4488   62.2147   40.8249 R7         2 LUT      0.087068
    198 H202       73.8957   62.9746   39.9174 R7         2 LUT      0.087068
    199 H201       73.9275   61.2969   40.5531 R7         2 LUT      0.087068
    200 H193       68.6001   61.0607   44.5241 R4         2 LUT      0.089716
    201 H192       69.8408   60.0961   43.9323 R4         2 LUT      0.089716
    202 H191       69.2373   59.8406   45.5051 R4         2 LUT      0.089716
    203 H183       65.9694   63.8679   47.5849 R1         2 LUT      0.094572
    204 H182       66.8943   65.3033   48.1054 R1         2 LUT      0.094572
    205 H181       67.5719   63.9837   46.9131 R1         2 LUT      0.094572
    206 H173       69.3697   63.4990   51.4659 T4         2 LUT      0.093752
    207 H172       69.8561   61.9376   52.0438 T4         2 LUT      0.093752
    208 H171       70.7791   62.9228   50.9691 T4         2 LUT      0.093752
    209 H163       69.3231   59.6754   49.3130 T4         2 LUT      0.093752
    210 H162       70.9066   60.7256   49.5427 T4         2 LUT      0.093752
    211 H161       70.0219   59.9198   51.0197 T4         2 LUT      0.093752
    212 HO3        66.7058   62.4101   53.2238 Q1         2 LUT      0.300121
    213 H8         70.8182   62.5136   47.4452 U7         2 LUT      0.080784
    214 H7         67.9510   61.6002   47.0721 U6         2 LUT      0.042190
    215 H42        65.9184   64.1602   50.0506 U5         2 LUT      0.145166
    216 H41        67.6316   64.5023   50.8141 U5         2 LUT      0.145166
    217 H35        77.5063   65.0014   42.0213 T3         2 LUT      0.077919
    218 H34        78.6681   63.5253   39.4808 T2         2 LUT      0.073626
    219 H32        80.6934   64.3274   38.6908 T1         2 LUT      0.092510
    220 H31        81.7376   66.9318   39.6610 U9         2 LUT      0.070048
    221 H30        82.4282   65.0453   37.3146 U8         2 LUT      0.085442
    222 H3         65.7635   62.1790   51.1425 U3         2 LUT     -0.031596
    223 H28        84.1523   65.4970   35.8696 U7         2 LUT      0.084728
    224 H27        85.8710   67.8504   36.0560 U6         2 LUT      0.087291
    225 H26        85.5682   65.4720   34.1701 Q6         2 LUT      0.075325
    226 H24        87.0315   67.9268   31.5637 Q5         2 LUT      0.094482
    227 H23        88.9298   67.5021   33.2880 U3         2 LUT     -0.024869
    228 H22        67.1486   60.7423   50.1843 U2         2 LUT      0.127376
    229 H21        67.8614   60.8557   51.6977 U2         2 LUT      0.127376
    230 H15        76.2287   62.9237   40.1269 T3         2 LUT      0.093200
    231 H14        75.4196   64.0075   43.0392 T2         2 LUT      0.068865
    232 H12        73.6282   63.4382   43.9722 T1         2 LUT      0.095507
    233 H11        71.6841   61.4047   42.9034 U9         2 LUT      0.068930
    234 H10        72.0728   62.9735   45.6176 U8         2 LUT      0.083911
    235 H1         88.8522   65.8976   30.8535 Q1         2 LUT      0.297311
@<TRIPOS>BOND
    1     6     1 1
    2     7     2 1
    3     8     3 1
    4     9     4 1
    5    11     4 1
    6    12     6 1
    7    13     9 1
    8    16     9 1
    9    25     5 1
   10    25    16 1
   11    26    10 1
   12    26    17 1
   13    27    18 1
   14    28    14 1
   15    28    19 1
   16    29    12 1
   17    30    13 1
   18    31    24 1
   19    32     1 1
   20    32    25 1
   21    33    21 1
   22    33    26 1
   23    34    22 1
   24    34    27 1
   25    35    23 1
   26    35    28 1
   27    36    12 1
   28    36    24 1
   29    37    13 1
   30    37    15 1
   31    38    31 1
   32    39    20 1
   33    39    32 1
   34    40     2 1
   35    40    33 1
   36    41     3 1
   37    41    34 1
   38    42     4 1
   39    42    35 1
   40    43    38 1
   41    44     5 1
   42    44    17 1
   43    44    39 1
   44    45    10 1
   45    45    18 1
   46    45    40 1
   47    46    19 1
   48    46    41 1
   49    47    14 1
   50    47    16 1
   51    47    42 1
   52    48    38 1
   53    49    48 1
   54    50    49 1
   55    51    50 1
   56    52    51 1
   57    53    51 1
   58    54    53 1
   59    55    54 1
   60    56    55 1
   61    57    56 1
   62    58    56 1
   63    59    58 1
   64    60    59 1
   65    61    60 1
   66    62    61 1
   67    63    61 1
   68    64    27 1
   69    64    46 1
   70    65     5 1
   71    65    10 1
   72    65    64 1
   73    65    14 1
   74    66    23 1
   75    67    23 1
   76    68    23 1
   77    69    22 1
   78    70    22 1
   79    71    22 1
   80    72    21 1
   81    73    21 1
   82    74    21 1
   83    75    20 1
   84    76    20 1
   85    77    20 1
   86    78    15 1
   87    79    15 1
   88    80    15 1
   89    81     8 1
   90    82     8 1
   91    83     8 1
   92    84     7 1
   93    85     7 1
   94    86     6 1
   95    87     6 1
   96    88     3 1
   97    89     3 1
   98    90     1 1
   99    91     1 1
  100    92    63 1
  101    93    63 1
  102    94    63 1
  103    95    62 1
  104    96    62 1
  105    97    62 1
  106    98    60 1
  107    99    60 1
  108   100    59 1
  109   101    59 1
  110   102    58 1
  111   103    58 1
  112   104    57 1
  113   105    57 1
  114   106    57 1
  115   107    55 1
  116   108    55 1
  117   109    54 1
  118   110    54 1
  119   111    53 1
  120   112    53 1
  121   113    19 1
  122   114    18 1
  123   115    17 1
  124   116     9 1
  125   117     2 1
  126   118    52 1
  127   119    52 1
  128   120    52 1
  129   121    51 1
  130   122    50 1
  131   123    50 1
  132   124    49 1
  133   125    49 1
  134   126    48 1
  135   127    48 1
  136   128    43 1
  137   129    43 1
  138   130    43 1
  139   131    39 1
  140   132    32 1
  141   133    31 1
  142   134    61 1
  143   135    56 1
  144   136    24 1
  145   137    24 1
  146   139   138 1
  147   140   139 1
  148   141   140 1
  149   142   140 1
  150   143   142 1
  151   144   138 1
  152   144   143 1
  153   145   144 1
  154   146   145 1
  155   147   146 1
  156   148   147 1
  157   149   148 1
  158   150   149 1
  159   151   150 1
  160   152   151 1
  161   153   152 1
  162   154   138 1
  163   155   138 1
  164   156   143 1
  165   157   147 1
  166   158   151 1
  167   160   159 1
  168   161   160 1
  169   162   161 1
  170   163   161 1
  171   164   163 1
  172   165   159 1
  173   165   164 1
  174   166   165 1
  175   167   166 1
  176   168   167 1
  177   169   168 1
  178   170   169 1
  179   171   170 1
  180   172   171 1
  181   173   172 1
  182   174   153 1
  183   174   173 1
  184   175   159 1
  185   176   159 1
  186   177   164 1
  187   178   168 1
  188   179   172 1
  189   180   179 1
  190   181   179 1
  191   182   179 1
  192   183   178 1
  193   184   178 1
  194   185   178 1
  195   186   177 1
  196   187   177 1
  197   188   177 1
  198   189   176 1
  199   190   176 1
  200   191   176 1
  201   192   175 1
  202   193   175 1
  203   194   175 1
  204   195   160 1
  205   196   160 1
  206   197   158 1
  207   198   158 1
  208   199   158 1
  209   200   157 1
  210   201   157 1
  211   202   157 1
  212   203   156 1
  213   204   156 1
  214   205   156 1
  215   206   155 1
  216   207   155 1
  217   208   155 1
  218   209   154 1
  219   210   154 1
  220   211   154 1
  221   212   141 1
  222   213   146 1
  223   214   145 1
  224   215   142 1
  225   216   142 1
  226   217   174 1
  227   218   173 1
  228   219   171 1
  229   220   170 1
  230   221   169 1
  231   222   140 1
  232   223   167 1
  233   224   166 1
  234   225   165 1
  235   226   163 1
  236   227   161 1
  237   228   139 1
  238   229   139 1
  239   230   153 1
  240   231   152 1
  241   232   150 1
  242   233   149 1
  243   234   148 1
  244   235   162 1
  245   65    153 1
  246   65    174 1
@<TRIPOS>SUBSTRUCTURE
      1 CLA               1 ****               0 ****  **** 
      2 LUT             138 ****               0 ****  **** 
