@<TRIPOS>MOLECULE
Cpptraj generated mol2 file.
  235   246     2     0     0
SMALL
USER_CHARGES


@<TRIPOS>ATOM
      1 CAA        79.5287   58.4942   34.6690 a2         1 CLA     -0.055900
      2 CAB        80.0032   62.9829   43.1666 c8         1 CLA     -0.148500
      3 CAC        73.0714   58.6425   43.5341 a2         1 CLA     -0.012600
      4 CAD        75.2037   55.9230   36.4101 ck         1 CLA      0.398800
      5 NA         78.6475   58.9345   38.0839 ns         1 CLA     -0.225500
      6 CBA        80.6888   58.1562   33.7003 a2         1 CLA     -0.135000
      7 CBB        81.1745   62.8494   43.8076 c0         1 CLA     -0.395200
      8 CBC        73.3996   57.2998   44.0602 a3         1 CLA     -0.037700
      9 CBD        76.6968   56.4635   35.8383 a1         1 CLA     -0.053900
     10 NB         78.6540   60.6923   40.5320 nm         1 CLA     -0.295700
     11 OBD        74.6491   54.9132   35.9776 o2         1 CLA     -0.494600
     12 CGA        81.0549   56.7014   33.5745 c4         1 CLA      0.827000
     13 CGD        77.6756   55.2896   35.7073 c4         1 CLA      0.655300
     14 ND         75.8408   58.2576   38.8671 nm         1 CLA     -0.291600
     15 CED        78.2586   53.2036   36.5946 a3         1 CLA      0.005400
     16 CHA        77.1712   57.5179   36.8845 cs         1 CLA     -0.123800
     17 CHB        80.5028   60.2699   38.9955 aa         1 CLA     -0.291900
     18 CHC        77.3396   61.3144   42.5621 aa         1 CLA     -0.090400
     19 CHD        74.2317   58.1561   40.7211 aa         1 CLA     -0.052000
     20 CMA        81.9609   57.8170   37.4636 a3         1 CLA     -0.230700
     21 CMB        81.9059   62.3958   40.6166 a3         1 CLA     -0.180800
     22 CMC        75.1409   60.8829   44.8172 a3         1 CLA     -0.134000
     23 CMD        72.6158   56.2561   38.6670 a3         1 CLA     -0.141100
     24 C1         82.4212   54.9014   34.5178 a2         1 CLA      0.023000
     25 C1A        78.4296   58.1427   36.9944 ac         1 CLA     -0.015100
     26 C1B        79.9240   60.8721   40.1379 cr         1 CLA      0.054700
     27 C1C        76.2091   60.4414   42.4827 cn         1 CLA     -0.005600
     28 C1D        74.6371   57.7945   39.4444 ap         1 CLA     -0.047300
     29 O1A        80.7286   56.0488   32.6384 o2         1 CLA     -0.610800
     30 O1D        78.5085   55.1537   34.8510 o2         1 CLA     -0.558200
     31 C2         83.2665   54.6217   35.6853 c8         1 CLA     -0.325100
     32 C2A        79.6560   58.0349   36.0801 a1         1 CLA      0.098600
     33 C2B        80.5203   61.8899   40.8900 cb         1 CLA      0.088500
     34 C2C        75.1939   60.2963   43.5037 cb         1 CLA      0.053700
     35 C2D        73.9657   56.9378   38.4430 cb         1 CLA      0.058900
     36 O2A        81.9189   56.2910   34.5364 o1         1 CLA     -0.437200
     37 O2D        77.4244   54.4395   36.7129 o1         1 CLA     -0.357600
     38 C3         84.3493   53.8775   35.6114 c5         1 CLA      0.031200
     39 C3A        80.7391   58.7435   36.9530 a1         1 CLA      0.166800
     40 C3B        79.6699   62.2357   41.9317 cb         1 CLA      0.035000
     41 C3C        74.2905   59.3788   42.9527 cb         1 CLA     -0.089900
     42 C3D        74.9271   56.7386   37.4904 cb         1 CLA     -0.035900
     43 C4         84.4553   52.4812   36.1400 a3         1 CLA     -0.053300
     44 C4A        79.9636   59.3194   38.1079 ac         1 CLA      0.001800
     45 C4B        78.4540   61.3978   41.6839 cn         1 CLA     -0.020900
     46 C4C        74.8138   59.0230   41.6280 cr         1 CLA     -0.044400
     47 C4D        76.0431   57.5855   37.7157 c6         1 CLA     -0.046000
     48 C5         85.6294   54.5343   35.1084 a2         1 CLA     -0.070400
     49 C6         85.9648   55.9679   35.6821 a2         1 CLA      0.043900
     50 C7         86.4394   55.6924   37.2252 a2         1 CLA     -0.150000
     51 C8         86.5875   56.8823   38.2886 a1         1 CLA      0.064200
     52 C9         87.7613   57.6911   37.7488 a3         1 CLA     -0.259300
     53 C10        86.8428   56.4895   39.7327 a2         1 CLA     -0.071900
     54 C11        87.0107   57.6145   40.6753 a2         1 CLA      0.014500
     55 C12        87.0448   56.9273   42.1582 a2         1 CLA     -0.112100
     56 C13        87.2291   57.9163   43.3528 a1         1 CLA      0.089200
     57 C14        88.4415   58.8607   42.9849 a3         1 CLA     -0.239100
     58 C15        87.3920   57.2239   44.7056 a2         1 CLA     -0.102200
     59 C16        86.9586   58.1315   45.8748 a2         1 CLA      0.023900
     60 C17        87.3401   57.4522   47.1583 a2         1 CLA     -0.105700
     61 C18        86.7561   58.2401   48.3687 a1         1 CLA      0.206800
     62 C19        86.8768   57.6229   49.7576 a3         1 CLA     -0.280100
     63 C20        87.2182   59.6903   48.4993 a3         1 CLA     -0.280100
     64 NC         76.0199   59.6289   41.4257 nx         1 CLA     -0.309200
     65 MG         77.2480   59.4669   39.6606 mg         1 CLA      0.895000
     66 HMD3       71.9085   57.0153   39.0325 dc         1 CLA      0.064300
     67 HMD2       72.1445   55.8082   37.8036 dc         1 CLA      0.064300
     68 HMD1       72.6873   55.4567   39.4274 dc         1 CLA      0.064300
     69 HMC3       75.4261   61.9634   44.8431 dc         1 CLA      0.052100
     70 HMC2       74.1388   60.7827   45.2960 dc         1 CLA      0.052100
     71 HMC1       75.9565   60.4709   45.4084 dc         1 CLA      0.052100
     72 HMB3       81.9887   62.7069   39.5637 dc         1 CLA      0.063600
     73 HMB2       82.1010   63.1772   41.3640 dc         1 CLA      0.063600
     74 HMB1       82.6759   61.6918   40.8103 dc         1 CLA      0.063600
     75 HMA3       81.6204   57.0782   38.1524 dc         1 CLA      0.058300
     76 HMA2       82.3782   57.3190   36.6407 dc         1 CLA      0.058300
     77 HMA1       82.7834   58.4040   37.9110 dc         1 CLA      0.058300
     78 HED3       77.8116   52.4478   37.1967 dc         1 CLA      0.079300
     79 HED2       78.2998   52.7388   35.5889 dc         1 CLA      0.079300
     80 HED1       79.2668   53.5081   36.9080 dc         1 CLA      0.079300
     81 HBC3       73.9774   56.7154   43.2838 dc         1 CLA      0.016300
     82 HBC2       73.9118   57.4013   45.0164 dc         1 CLA      0.016300
     83 HBC1       72.4307   56.8527   44.2288 dc         1 CLA      0.016300
     84 HBB2       81.3453   63.2953   44.8186 da         1 CLA      0.183000
     85 HBB1       81.9600   62.1630   43.4129 da         1 CLA      0.183000
     86 HBA2       80.5471   58.5415   32.6737 dc         1 CLA      0.029400
     87 HBA1       81.5541   58.6162   34.1299 dc         1 CLA      0.029400
     88 HAC2       72.5656   59.1529   44.4031 dc         1 CLA      0.029300
     89 HAC1       72.3517   58.5962   42.7208 dc         1 CLA      0.029300
     90 HAA2       78.6993   57.9354   34.2038 dc         1 CLA      0.028700
     91 HAA1       79.3826   59.6146   34.5981 dc         1 CLA      0.028700
     92 H203       86.7005   60.3455   49.2190 dc         1 CLA      0.065600
     93 H202       88.2826   59.7861   48.9372 dc         1 CLA      0.065600
     94 H201       87.1943   60.2617   47.5962 dc         1 CLA      0.065600
     95 H193       86.3979   56.6289   49.7750 dc         1 CLA      0.065600
     96 H192       87.9349   57.4158   50.0323 dc         1 CLA      0.065600
     97 H191       86.3540   58.2453   50.5005 dc         1 CLA      0.065600
     98 H172       86.8983   56.4087   47.0657 dc         1 CLA      0.027600
     99 H171       88.3765   57.5212   47.1073 dc         1 CLA      0.027600
    100 H162       87.4998   59.0647   45.7245 dc         1 CLA      0.002900
    101 H161       85.8548   58.2825   45.8306 dc         1 CLA      0.002900
    102 H152       86.8128   56.3409   44.9417 dc         1 CLA      0.029100
    103 H151       88.4316   56.9328   44.9162 dc         1 CLA      0.029100
    104 H143       88.6794   59.4945   43.8077 dc         1 CLA      0.063600
    105 H142       89.4314   58.2870   42.8012 dc         1 CLA      0.063600
    106 H141       88.3044   59.5156   42.1146 dc         1 CLA      0.063600
    107 H122       86.1489   56.3185   42.3642 dc         1 CLA      0.032500
    108 H121       88.0022   56.3208   42.1705 dc         1 CLA      0.032500
    109 H112       87.9452   58.0284   40.5540 dc         1 CLA      0.006600
    110 H111       86.1491   58.3167   40.6457 dc         1 CLA      0.006600
    111 H102       86.1022   55.7885   40.1277 dc         1 CLA      0.024100
    112 H101       87.8371   55.9685   39.7455 dc         1 CLA      0.024100
    113 HHD        73.1456   57.8747   40.9815 da         1 CLA      0.174300
    114 HHC        77.3457   61.9929   43.4517 da         1 CLA      0.136800
    115 HHB        81.5457   60.6325   38.7026 da         1 CLA      0.138300
    116 HBD        76.5523   56.9538   34.8902 dc         1 CLA      0.107700
    117 HAB        79.1998   63.5385   43.5837 da         1 CLA      0.155200
    118 H93        87.6995   57.8100   36.6993 dc         1 CLA      0.069500
    119 H92        87.7991   58.6997   38.2145 dc         1 CLA      0.069500
    120 H91        88.7149   57.0867   37.6705 dc         1 CLA      0.069500
    121 H8         85.7085   57.4822   38.3632 dc         1 CLA      0.029300
    122 H72        85.6987   54.9764   37.6083 dc         1 CLA      0.044400
    123 H71        87.3491   55.2483   37.3174 dc         1 CLA      0.044400
    124 H62        86.7364   56.4468   35.0910 dc         1 CLA      0.015600
    125 H61        85.1555   56.6935   35.5677 dc         1 CLA      0.015600
    126 H52        86.4450   53.9574   35.4522 dc         1 CLA      0.033200
    127 H51        85.4981   54.5384   34.0651 dc         1 CLA      0.033200
    128 H43        83.6474   52.1715   36.7107 dc         1 CLA      0.037000
    129 H42        84.6462   51.7616   35.3347 dc         1 CLA      0.037000
    130 H41        85.3802   52.3174   36.7348 dc         1 CLA      0.037000
    131 H3A        81.1748   59.5777   36.2904 dc         1 CLA      0.041100
    132 H2A        79.9239   56.9705   36.0638 dc         1 CLA      0.083100
    133 H2         83.1317   55.2785   36.5735 da         1 CLA      0.180900
    134 H18        85.7438   58.5292   48.1673 dc         1 CLA     -0.003900
    135 H13        86.4017   58.6207   43.3733 dc         1 CLA      0.019700
    136 H12        81.6105   54.2050   34.4813 dc         1 CLA      0.120400
    137 H11        83.0923   54.8736   33.6312 dc         1 CLA      0.120400
    138 C1         69.1444   61.8553   49.6503 Z1         2 LUT      0.509236
    139 C2         67.7478   61.5952   50.2270 Z2         2 LUT     -0.434695
    140 C3         66.8561   62.7523   50.5624 Z3         2 LUT      0.437453
    141 O3         67.1452   63.1769   51.9151 S1         2 LUT     -0.547129
    142 C4         67.1199   63.8867   49.6143 Z4         2 LUT     -0.468603
    143 C5         68.0036   63.6735   48.3958 Z5         2 LUT      0.279246
    144 C6         69.0445   62.7960   48.3880 Z6         2 LUT     -0.305473
    145 C7         69.4817   62.1947   47.0928 Z7         2 LUT      0.069402
    146 C8         70.5096   62.6735   46.4088 Z8         2 LUT     -0.191631
    147 C9         71.0192   62.2976   45.0542 Z9         2 LUT      0.196698
    148 C10        72.1064   63.0558   44.6213 Y1         2 LUT     -0.208611
    149 C11        72.8744   63.1374   43.4108 Y2         2 LUT      0.030784
    150 C12        74.0520   63.8408   43.2645 Y3         2 LUT     -0.220316
    151 C13        75.0752   63.8723   42.1775 Y4         2 LUT      0.215937
    152 C14        76.1779   64.7117   42.3778 Y5         2 LUT     -0.185793
    153 C15        77.2907   64.9739   41.5458 Y6         2 LUT     -0.057835
    154 C16        69.8227   60.4841   49.4714 Y7         2 LUT     -0.405615
    155 C17        69.8677   62.6068   50.8157 Y7         2 LUT     -0.405615
    156 C18        67.5172   64.6463   47.3396 Y9         2 LUT     -0.369639
    157 C19        70.2359   61.1750   44.2886 W1         2 LUT     -0.333362
    158 C20        74.7840   63.2312   40.8400 W2         2 LUT     -0.323439
    159 C21        89.0086   66.1493   35.3834 Z1         2 LUT      0.406104
    160 C22        89.6859   65.4233   34.1421 Z2         2 LUT     -0.404965
    161 C23        89.6550   66.0774   32.8003 Z3         2 LUT      0.391255
    162 O23        90.1776   65.1367   31.8926 S1         2 LUT     -0.528210
    163 C24        88.3891   66.8115   32.5392 W6         2 LUT     -0.258361
    164 C25        87.3903   66.8602   33.4304 Z5         2 LUT      0.133546
    165 C26        87.4562   66.3181   34.8518 W8         2 LUT     -0.147008
    166 C27        86.6607   66.9808   36.0141 Z7         2 LUT      0.023843
    167 C28        85.4595   66.5642   36.4518 Z8         2 LUT     -0.216987
    168 C29        84.7844   67.0807   37.6540 Z9         2 LUT      0.206524
    169 C30        83.6184   66.5430   38.1560 Y1         2 LUT     -0.215556
    170 C31        82.8595   66.7002   39.3491 Y2         2 LUT      0.025142
    171 C32        81.6694   66.0177   39.6726 Y3         2 LUT     -0.212209
    172 C33        80.7704   66.2647   40.7840 Y4         2 LUT      0.240937
    173 C34        79.5338   65.5719   40.8230 Y5         2 LUT     -0.218862
    174 C35        78.4210   65.7056   41.7837 Y6         2 LUT     -0.023547
    175 C36        89.8156   67.3913   35.7364 Y7         2 LUT     -0.393485
    176 C37        88.9365   65.1725   36.6441 Y7         2 LUT     -0.393485
    177 C38        86.0117   67.4778   33.1252 Y9         2 LUT     -0.387526
    178 C39        85.6127   67.9997   38.5008 W1         2 LUT     -0.322618
    179 C40        81.2359   67.0666   41.9599 W2         2 LUT     -0.358472
    180 H403       82.1806   66.7423   42.3006 R7         2 LUT      0.097720
    181 H402       81.2944   68.0959   41.5706 R7         2 LUT      0.097720
    182 H401       80.6282   67.1442   42.7979 R7         2 LUT      0.097720
    183 H393       86.4833   67.4610   38.9884 R4         2 LUT      0.082505
    184 H392       86.0587   68.8863   38.0241 R4         2 LUT      0.082505
    185 H391       85.0329   68.3356   39.3486 R4         2 LUT      0.082505
    186 H383       85.7042   68.2106   33.9370 R1         2 LUT      0.104030
    187 H382       85.9670   68.1223   32.2215 R1         2 LUT      0.104030
    188 H381       85.3581   66.5688   32.9934 R1         2 LUT      0.104030
    189 H373       89.8928   64.7964   37.0694 T4         2 LUT      0.089537
    190 H372       88.3238   65.6335   37.4014 T4         2 LUT      0.089537
    191 H371       88.4647   64.2222   36.4244 T4         2 LUT      0.089537
    192 H363       89.8667   68.1655   35.0315 T4         2 LUT      0.089537
    193 H362       89.4572   67.8124   36.6538 T4         2 LUT      0.089537
    194 H361       90.8030   67.0476   36.0038 T4         2 LUT      0.089537
    195 H222       90.7613   65.2084   34.3071 U2         2 LUT      0.127376
    196 H221       89.1277   64.4728   34.0463 U2         2 LUT      0.127376
    197 H203       74.8366   62.1841   40.8825 R7         2 LUT      0.087068
    198 H202       73.7386   63.4473   40.6235 R7         2 LUT      0.087068
    199 H201       75.3964   63.5445   39.9742 R7         2 LUT      0.087068
    200 H193       69.2098   61.4130   44.0399 R4         2 LUT      0.089716
    201 H192       70.7694   60.9072   43.3500 R4         2 LUT      0.089716
    202 H191       70.1363   60.2492   44.8575 R4         2 LUT      0.089716
    203 H183       68.0137   64.4034   46.3866 R1         2 LUT      0.094572
    204 H182       66.4737   64.5984   47.1590 R1         2 LUT      0.094572
    205 H181       67.6986   65.6906   47.5844 R1         2 LUT      0.094572
    206 H173       70.9865   62.5953   50.7897 T4         2 LUT      0.093752
    207 H172       69.5611   63.6488   50.8898 T4         2 LUT      0.093752
    208 H171       69.6591   62.1941   51.8047 T4         2 LUT      0.093752
    209 H163       70.1388   60.0287   50.3453 T4         2 LUT      0.093752
    210 H162       69.1852   59.7600   48.8636 T4         2 LUT      0.093752
    211 H161       70.7454   60.5065   48.9785 T4         2 LUT      0.093752
    212 HO3        66.6368   62.6855   52.5499 Q1         2 LUT      0.300121
    213 H8         70.9869   63.4572   46.9200 U7         2 LUT      0.080784
    214 H7         68.7653   61.4940   46.7220 U6         2 LUT      0.042190
    215 H42        66.2070   64.3738   49.2902 U5         2 LUT      0.145166
    216 H41        67.4129   64.7799   50.1987 U5         2 LUT      0.145166
    217 H35        78.6107   66.2693   42.6864 T3         2 LUT      0.077919
    218 H34        79.3857   64.8284   40.0852 T2         2 LUT      0.073626
    219 H32        81.3267   65.3163   38.9388 T1         2 LUT      0.092510
    220 H31        83.2268   67.3926   40.1207 U9         2 LUT      0.070048
    221 H30        83.1996   65.7804   37.5194 U8         2 LUT      0.085442
    222 H3         65.7569   62.4690   50.4474 U3         2 LUT     -0.031596
    223 H28        84.9091   66.0331   35.6362 U7         2 LUT      0.084728
    224 H27        87.1173   67.7681   36.5252 U6         2 LUT      0.087291
    225 H26        86.9899   65.2813   34.7615 Q6         2 LUT      0.075325
    226 H24        88.2871   67.2865   31.6331 Q5         2 LUT      0.094482
    227 H23        90.4066   66.9170   32.8859 U3         2 LUT     -0.024869
    228 H22        67.1474   61.1383   49.4717 U2         2 LUT      0.127376
    229 H21        67.6902   60.8965   51.0565 U2         2 LUT      0.127376
    230 H15        77.3967   64.5223   40.5468 T3         2 LUT      0.093200
    231 H14        76.3249   65.1220   43.3821 T2         2 LUT      0.068865
    232 H12        74.2532   64.3259   44.1630 T1         2 LUT      0.095507
    233 H11        72.5977   62.4763   42.6022 U9         2 LUT      0.068930
    234 H10        72.3694   63.8278   45.3838 U8         2 LUT      0.083911
    235 H1         90.1609   65.4879   30.9870 Q1         2 LUT      0.297311
@<TRIPOS>BOND
    1     6     1 1
    2     7     2 1
    3     8     3 1
    4     9     4 1
    5    11     4 1
    6    12     6 1
    7    13     9 1
    8    16     9 1
    9    25     5 1
   10    25    16 1
   11    26    10 1
   12    26    17 1
   13    27    18 1
   14    28    14 1
   15    28    19 1
   16    29    12 1
   17    30    13 1
   18    31    24 1
   19    32     1 1
   20    32    25 1
   21    33    21 1
   22    33    26 1
   23    34    22 1
   24    34    27 1
   25    35    23 1
   26    35    28 1
   27    36    12 1
   28    36    24 1
   29    37    13 1
   30    37    15 1
   31    38    31 1
   32    39    20 1
   33    39    32 1
   34    40     2 1
   35    40    33 1
   36    41     3 1
   37    41    34 1
   38    42     4 1
   39    42    35 1
   40    43    38 1
   41    44     5 1
   42    44    17 1
   43    44    39 1
   44    45    10 1
   45    45    18 1
   46    45    40 1
   47    46    19 1
   48    46    41 1
   49    47    14 1
   50    47    16 1
   51    47    42 1
   52    48    38 1
   53    49    48 1
   54    50    49 1
   55    51    50 1
   56    52    51 1
   57    53    51 1
   58    54    53 1
   59    55    54 1
   60    56    55 1
   61    57    56 1
   62    58    56 1
   63    59    58 1
   64    60    59 1
   65    61    60 1
   66    62    61 1
   67    63    61 1
   68    64    27 1
   69    64    46 1
   70    65     5 1
   71    65    10 1
   72    65    64 1
   73    65    14 1
   74    66    23 1
   75    67    23 1
   76    68    23 1
   77    69    22 1
   78    70    22 1
   79    71    22 1
   80    72    21 1
   81    73    21 1
   82    74    21 1
   83    75    20 1
   84    76    20 1
   85    77    20 1
   86    78    15 1
   87    79    15 1
   88    80    15 1
   89    81     8 1
   90    82     8 1
   91    83     8 1
   92    84     7 1
   93    85     7 1
   94    86     6 1
   95    87     6 1
   96    88     3 1
   97    89     3 1
   98    90     1 1
   99    91     1 1
  100    92    63 1
  101    93    63 1
  102    94    63 1
  103    95    62 1
  104    96    62 1
  105    97    62 1
  106    98    60 1
  107    99    60 1
  108   100    59 1
  109   101    59 1
  110   102    58 1
  111   103    58 1
  112   104    57 1
  113   105    57 1
  114   106    57 1
  115   107    55 1
  116   108    55 1
  117   109    54 1
  118   110    54 1
  119   111    53 1
  120   112    53 1
  121   113    19 1
  122   114    18 1
  123   115    17 1
  124   116     9 1
  125   117     2 1
  126   118    52 1
  127   119    52 1
  128   120    52 1
  129   121    51 1
  130   122    50 1
  131   123    50 1
  132   124    49 1
  133   125    49 1
  134   126    48 1
  135   127    48 1
  136   128    43 1
  137   129    43 1
  138   130    43 1
  139   131    39 1
  140   132    32 1
  141   133    31 1
  142   134    61 1
  143   135    56 1
  144   136    24 1
  145   137    24 1
  146   139   138 1
  147   140   139 1
  148   141   140 1
  149   142   140 1
  150   143   142 1
  151   144   138 1
  152   144   143 1
  153   145   144 1
  154   146   145 1
  155   147   146 1
  156   148   147 1
  157   149   148 1
  158   150   149 1
  159   151   150 1
  160   152   151 1
  161   153   152 1
  162   154   138 1
  163   155   138 1
  164   156   143 1
  165   157   147 1
  166   158   151 1
  167   160   159 1
  168   161   160 1
  169   162   161 1
  170   163   161 1
  171   164   163 1
  172   165   159 1
  173   165   164 1
  174   166   165 1
  175   167   166 1
  176   168   167 1
  177   169   168 1
  178   170   169 1
  179   171   170 1
  180   172   171 1
  181   173   172 1
  182   174   153 1
  183   174   173 1
  184   175   159 1
  185   176   159 1
  186   177   164 1
  187   178   168 1
  188   179   172 1
  189   180   179 1
  190   181   179 1
  191   182   179 1
  192   183   178 1
  193   184   178 1
  194   185   178 1
  195   186   177 1
  196   187   177 1
  197   188   177 1
  198   189   176 1
  199   190   176 1
  200   191   176 1
  201   192   175 1
  202   193   175 1
  203   194   175 1
  204   195   160 1
  205   196   160 1
  206   197   158 1
  207   198   158 1
  208   199   158 1
  209   200   157 1
  210   201   157 1
  211   202   157 1
  212   203   156 1
  213   204   156 1
  214   205   156 1
  215   206   155 1
  216   207   155 1
  217   208   155 1
  218   209   154 1
  219   210   154 1
  220   211   154 1
  221   212   141 1
  222   213   146 1
  223   214   145 1
  224   215   142 1
  225   216   142 1
  226   217   174 1
  227   218   173 1
  228   219   171 1
  229   220   170 1
  230   221   169 1
  231   222   140 1
  232   223   167 1
  233   224   166 1
  234   225   165 1
  235   226   163 1
  236   227   161 1
  237   228   139 1
  238   229   139 1
  239   230   153 1
  240   231   152 1
  241   232   150 1
  242   233   149 1
  243   234   148 1
  244   235   162 1
  245   65    153 1
  246   65    174 1
@<TRIPOS>SUBSTRUCTURE
      1 CLA               1 ****               0 ****  **** 
      2 LUT             138 ****               0 ****  **** 
