@<TRIPOS>MOLECULE
Cpptraj generated mol2 file.
  235   246     2     0     0
SMALL
USER_CHARGES


@<TRIPOS>ATOM
      1 CAA        77.4866   57.3382   32.9743 a2         1 CLA     -0.055900
      2 CAB        77.6758   61.3971   41.7461 c8         1 CLA     -0.148500
      3 CAC        70.6702   57.3721   41.5709 a2         1 CLA     -0.012600
      4 CAD        73.0793   55.0153   34.2742 ck         1 CLA      0.398800
      5 NA         76.3835   57.9952   36.2790 ns         1 CLA     -0.225500
      6 CBA        78.7688   56.9900   32.1233 a2         1 CLA     -0.135000
      7 CBB        78.8996   61.4444   42.2619 c0         1 CLA     -0.395200
      8 CBC        70.5057   55.8339   41.4666 a3         1 CLA     -0.037700
      9 CBD        74.5630   55.5214   33.9092 a1         1 CLA     -0.053900
     10 NB         76.2974   59.6256   38.7868 nm         1 CLA     -0.295700
     11 OBD        72.4181   54.2818   33.5810 o2         1 CLA     -0.494600
     12 CGA        79.1821   55.5312   31.9283 c4         1 CLA      0.827000
     13 CGD        75.4585   54.3273   33.7116 c4         1 CLA      0.655300
     14 ND         73.5332   57.2622   36.8760 nm         1 CLA     -0.291600
     15 CED        76.5476   52.6293   34.9119 a3         1 CLA      0.005400
     16 CHA        74.9839   56.3840   35.0504 cs         1 CLA     -0.123800
     17 CHB        78.1730   59.3675   37.2062 aa         1 CLA     -0.291900
     18 CHC        75.0868   59.9306   40.8771 aa         1 CLA     -0.090400
     19 CHD        71.7520   57.1982   38.6137 aa         1 CLA     -0.052000
     20 CMA        79.6737   56.9669   35.8935 a3         1 CLA     -0.230700
     21 CMB        79.7290   61.1407   39.1501 a3         1 CLA     -0.180800
     22 CMC        72.9358   59.2487   43.1115 a3         1 CLA     -0.134000
     23 CMD        70.2772   55.4328   36.4069 a3         1 CLA     -0.141100
     24 C1         80.2838   53.5911   32.8396 a2         1 CLA      0.023000
     25 C1A        76.2575   57.1070   35.2430 ac         1 CLA     -0.015100
     26 C1B        77.5450   59.9796   38.3118 cr         1 CLA      0.054700
     27 C1C        73.9127   59.1538   40.6861 cn         1 CLA     -0.005600
     28 C1D        72.2979   56.8082   37.3628 ap         1 CLA     -0.047300
     29 O1A        79.0931   54.8743   30.9035 o2         1 CLA     -0.610800
     30 O1D        76.2551   54.1643   32.8014 o2         1 CLA     -0.558200
     31 C2         80.9525   53.2891   34.1413 c8         1 CLA     -0.325100
     32 C2A        77.5501   56.9465   34.4375 a1         1 CLA      0.098600
     33 C2B        78.2196   60.8170   39.2560 cb         1 CLA      0.088500
     34 C2C        72.9190   58.7880   41.7058 cb         1 CLA      0.053700
     35 C2D        71.7308   55.8995   36.4282 cb         1 CLA      0.058900
     36 O2A        79.8012   55.0307   33.0316 o1         1 CLA     -0.437200
     37 O2D        75.3715   53.5145   34.8066 o1         1 CLA     -0.357600
     38 C3         81.5316   52.1400   34.5017 c5         1 CLA      0.031200
     39 C3A        78.5482   57.7851   35.2644 a1         1 CLA      0.166800
     40 C3B        77.3716   60.8605   40.3734 cb         1 CLA      0.035000
     41 C3C        72.0040   58.0096   41.0444 cb         1 CLA     -0.089900
     42 C3D        72.7607   55.6770   35.4623 cb         1 CLA     -0.035900
     43 C4         80.8351   50.8629   34.9534 a3         1 CLA     -0.053300
     44 C4A        77.6582   58.4494   36.2839 ac         1 CLA      0.001800
     45 C4B        76.1693   60.1622   40.0253 cn         1 CLA     -0.020900
     46 C4C        72.4343   57.8485   39.6537 cr         1 CLA     -0.044400
     47 C4D        73.8532   56.4891   35.8578 c6         1 CLA     -0.046000
     48 C5         83.0150   52.0056   34.2423 a2         1 CLA     -0.070400
     49 C6         83.9343   53.0768   34.7550 a2         1 CLA      0.043900
     50 C7         84.0419   53.0783   36.2892 a2         1 CLA     -0.150000
     51 C8         84.8281   54.2623   36.8438 a1         1 CLA      0.064200
     52 C9         86.3027   54.2211   36.4903 a3         1 CLA     -0.259300
     53 C10        84.6671   54.3592   38.3893 a2         1 CLA     -0.071900
     54 C11        83.2508   54.7668   38.7474 a2         1 CLA      0.014500
     55 C12        83.1074   55.5090   40.0530 a2         1 CLA     -0.112100
     56 C13        81.6432   55.9239   40.3275 a1         1 CLA      0.089200
     57 C14        81.0783   56.7566   39.1647 a3         1 CLA     -0.239100
     58 C15        81.5586   56.6200   41.6954 a2         1 CLA     -0.102200
     59 C16        82.1211   58.0549   41.7358 a2         1 CLA      0.023900
     60 C17        82.0385   58.5083   43.2592 a2         1 CLA     -0.105700
     61 C18        83.3967   58.4331   44.0907 a1         1 CLA      0.206800
     62 C19        83.2049   59.1305   45.5042 a3         1 CLA     -0.280100
     63 C20        83.7822   56.9425   44.3975 a3         1 CLA     -0.280100
     64 NC         73.6542   58.5163   39.5200 nx         1 CLA     -0.309200
     65 MG         74.8950   58.4974   37.7676 mg         1 CLA      0.895000
     66 HMD3       69.9294   54.9097   37.2540 dc         1 CLA      0.064300
     67 HMD2       69.6955   56.2997   36.2434 dc         1 CLA      0.064300
     68 HMD1       70.0776   54.7138   35.6278 dc         1 CLA      0.064300
     69 HMC3       73.8926   58.8897   43.5298 dc         1 CLA      0.052100
     70 HMC2       72.8430   60.3274   43.0838 dc         1 CLA      0.052100
     71 HMC1       72.1550   58.7935   43.7697 dc         1 CLA      0.052100
     72 HMB3       79.8593   62.1172   39.6063 dc         1 CLA      0.063600
     73 HMB2       80.3999   60.3418   39.4920 dc         1 CLA      0.063600
     74 HMB1       79.9488   61.3568   38.1063 dc         1 CLA      0.063600
     75 HMA3       80.3255   57.6184   36.4481 dc         1 CLA      0.058300
     76 HMA2       79.1910   56.3309   36.6243 dc         1 CLA      0.058300
     77 HMA1       80.2758   56.4165   35.2205 dc         1 CLA      0.058300
     78 HED3       76.3668   52.0752   35.8031 dc         1 CLA      0.079300
     79 HED2       76.6285   52.0397   33.9747 dc         1 CLA      0.079300
     80 HED1       77.5362   53.1911   35.0790 dc         1 CLA      0.079300
     81 HBC3       70.2359   55.6008   40.4397 dc         1 CLA      0.016300
     82 HBC2       71.4931   55.3768   41.6228 dc         1 CLA      0.016300
     83 HBC1       69.6724   55.5556   42.1474 dc         1 CLA      0.016300
     84 HBB2       79.0762   61.7518   43.3000 da         1 CLA      0.183000
     85 HBB1       79.6854   61.0187   41.6474 da         1 CLA      0.183000
     86 HBA2       78.6452   57.4343   31.1240 dc         1 CLA      0.029400
     87 HBA1       79.6143   57.4371   32.5687 dc         1 CLA      0.029400
     88 HAC2       70.6770   57.5655   42.6825 dc         1 CLA      0.029300
     89 HAC1       69.8063   57.8806   41.2260 dc         1 CLA      0.029300
     90 HAA2       76.7233   56.7196   32.6050 dc         1 CLA      0.028700
     91 HAA1       77.2552   58.3407   32.8591 dc         1 CLA      0.028700
     92 H203       82.9406   56.3569   44.8072 dc         1 CLA      0.065600
     93 H202       84.0717   56.5955   43.3914 dc         1 CLA      0.065600
     94 H201       84.6625   56.7818   44.9730 dc         1 CLA      0.065600
     95 H193       82.5529   58.6215   46.1215 dc         1 CLA      0.065600
     96 H192       84.1483   59.2413   46.0240 dc         1 CLA      0.065600
     97 H191       82.7796   60.1483   45.2391 dc         1 CLA      0.065600
     98 H172       81.9081   59.6153   43.0762 dc         1 CLA      0.027600
     99 H171       81.0952   58.2973   43.6988 dc         1 CLA      0.027600
    100 H162       83.0462   58.1632   41.2839 dc         1 CLA      0.002900
    101 H161       81.4868   58.6399   41.1153 dc         1 CLA      0.002900
    102 H152       80.5244   56.8675   41.8890 dc         1 CLA      0.029100
    103 H151       82.0768   55.9382   42.4569 dc         1 CLA      0.029100
    104 H143       81.8865   57.3298   38.7158 dc         1 CLA      0.063600
    105 H142       80.7619   56.0634   38.3703 dc         1 CLA      0.063600
    106 H141       80.3010   57.4643   39.4743 dc         1 CLA      0.063600
    107 H122       83.4948   54.8980   40.8911 dc         1 CLA      0.032500
    108 H121       83.6567   56.3968   40.0761 dc         1 CLA      0.032500
    109 H112       82.8977   55.4897   37.9526 dc         1 CLA      0.006600
    110 H111       82.5936   53.8660   38.8257 dc         1 CLA      0.006600
    111 H102       84.9845   53.4655   38.9529 dc         1 CLA      0.024100
    112 H101       85.2079   55.2003   38.7941 dc         1 CLA      0.024100
    113 HHD        70.7519   56.7920   38.7745 da         1 CLA      0.174300
    114 HHC        75.2312   60.2086   41.9338 da         1 CLA      0.136800
    115 HHB        79.1727   59.6698   36.9154 da         1 CLA      0.138300
    116 HBD        74.5644   56.0441   32.9597 dc         1 CLA      0.107700
    117 HAB        76.8139   61.8595   42.3292 da         1 CLA      0.155200
    118 H93        86.5053   54.1936   35.4542 dc         1 CLA      0.069500
    119 H92        86.7177   55.2068   36.8779 dc         1 CLA      0.069500
    120 H91        86.7832   53.4197   37.0299 dc         1 CLA      0.069500
    121 H8         84.5274   55.2292   36.4263 dc         1 CLA      0.029300
    122 H72        82.9760   53.1059   36.6261 dc         1 CLA      0.044400
    123 H71        84.4872   52.1525   36.7177 dc         1 CLA      0.044400
    124 H62        84.8899   53.0419   34.1603 dc         1 CLA      0.015600
    125 H61        83.4866   54.0255   34.4155 dc         1 CLA      0.015600
    126 H52        83.3943   51.0089   34.4355 dc         1 CLA      0.033200
    127 H51        83.2124   52.1387   33.1586 dc         1 CLA      0.033200
    128 H43        79.7951   51.0760   35.1597 dc         1 CLA      0.037000
    129 H42        80.7992   50.1026   34.0914 dc         1 CLA      0.037000
    130 H41        81.2872   50.4553   35.8473 dc         1 CLA      0.037000
    131 H3A        79.1027   58.5068   34.7210 dc         1 CLA      0.041100
    132 H2A        77.7531   55.9160   34.6193 dc         1 CLA      0.083100
    133 H2         80.9317   54.0852   34.8496 da         1 CLA      0.180900
    134 H18        84.2360   58.9392   43.6034 dc         1 CLA     -0.003900
    135 H13        81.0666   55.0474   40.3232 dc         1 CLA      0.019700
    136 H12        79.4055   52.9737   32.7869 dc         1 CLA      0.120400
    137 H11        80.9728   53.3879   32.0880 dc         1 CLA      0.120400
    138 C1         67.6883   60.6575   48.8506 Z1         2 LUT      0.509236
    139 C2         66.2666   60.5511   49.4208 Z2         2 LUT     -0.434695
    140 C3         65.4982   61.8683   49.5878 Z3         2 LUT      0.437453
    141 O3         65.5328   62.4321   50.9289 S1         2 LUT     -0.547129
    142 C4         65.9217   62.9640   48.5921 Z4         2 LUT     -0.468603
    143 C5         66.7036   62.4389   47.4029 Z5         2 LUT      0.279246
    144 C6         67.5526   61.4493   47.5511 Z6         2 LUT     -0.305473
    145 C7         68.0684   60.8130   46.2901 Z7         2 LUT      0.069402
    146 C8         68.9661   61.5155   45.4965 Z8         2 LUT     -0.191631
    147 C9         69.4406   61.2428   44.1237 Z9         2 LUT      0.196698
    148 C10        70.2913   62.2201   43.5856 Y1         2 LUT     -0.208611
    149 C11        70.8366   62.1979   42.2549 Y2         2 LUT      0.030784
    150 C12        71.8236   63.0733   41.8348 Y3         2 LUT     -0.220316
    151 C13        72.6723   62.9591   40.6833 Y4         2 LUT      0.215937
    152 C14        73.8688   63.6309   40.7510 Y5         2 LUT     -0.185793
    153 C15        74.9962   63.4532   39.8844 Y6         2 LUT     -0.057835
    154 C16        68.1628   59.1554   48.6278 Y7         2 LUT     -0.405615
    155 C17        68.5490   61.3453   50.0281 Y7         2 LUT     -0.405615
    156 C18        66.2253   63.0710   46.1641 Y9         2 LUT     -0.369639
    157 C19        68.7569   60.1181   43.3820 W1         2 LUT     -0.333362
    158 C20        72.1982   62.1108   39.5961 W2         2 LUT     -0.323439
    159 C21        86.2354   64.5323   33.5653 Z1         2 LUT      0.406104
    160 C22        87.0181   64.1846   32.3091 Z2         2 LUT     -0.404965
    161 C23        87.2557   65.2740   31.2992 Z3         2 LUT      0.391255
    162 O23        87.8385   64.5576   30.2146 S1         2 LUT     -0.528210
    163 C24        85.9437   66.0541   31.0683 W6         2 LUT     -0.258361
    164 C25        84.9452   66.1319   31.9581 Z5         2 LUT      0.133546
    165 C26        84.8512   65.2334   33.1398 W8         2 LUT     -0.147008
    166 C27        83.9939   65.9968   34.2526 Z7         2 LUT      0.023843
    167 C28        83.1872   65.4191   35.1162 Z8         2 LUT     -0.216987
    168 C29        82.5373   65.9243   36.3634 Z9         2 LUT      0.206524
    169 C30        81.5140   65.1783   36.9153 Y1         2 LUT     -0.215556
    170 C31        80.6049   65.3157   38.0762 Y2         2 LUT      0.025142
    171 C32        79.5122   64.5337   38.3070 Y3         2 LUT     -0.212209
    172 C33        78.5542   64.8207   39.3503 Y4         2 LUT      0.240937
    173 C34        77.3151   64.2138   39.2242 Y5         2 LUT     -0.218862
    174 C35        76.1504   64.1495   40.0392 Y6         2 LUT     -0.023547
    175 C36        87.2232   65.4785   34.3117 Y7         2 LUT     -0.393485
    176 C37        85.8931   63.1934   34.3979 Y7         2 LUT     -0.393485
    177 C38        83.5796   66.7115   31.5608 Y9         2 LUT     -0.387526
    178 C39        82.7627   67.2877   36.8920 W1         2 LUT     -0.322618
    179 C40        78.8952   65.8199   40.4070 W2         2 LUT     -0.358472
    180 H403       79.8026   65.6346   41.0524 R7         2 LUT      0.097720
    181 H402       79.0324   66.7299   39.9766 R7         2 LUT      0.097720
    182 H401       78.0727   65.9967   41.1784 R7         2 LUT      0.097720
    183 H393       82.5409   67.3340   37.9622 R4         2 LUT      0.082505
    184 H392       83.8826   67.4075   36.8185 R4         2 LUT      0.082505
    185 H391       82.2307   68.0478   36.4161 R4         2 LUT      0.082505
    186 H383       82.7937   66.9014   32.3128 R1         2 LUT      0.104030
    187 H382       83.7618   67.7213   31.1135 R1         2 LUT      0.104030
    188 H381       83.0607   66.1461   30.7626 R1         2 LUT      0.104030
    189 H373       85.9451   62.2891   33.7816 T4         2 LUT      0.089537
    190 H372       86.6093   62.9835   35.2121 T4         2 LUT      0.089537
    191 H371       84.9623   63.1985   34.9571 T4         2 LUT      0.089537
    192 H363       88.0348   64.9546   34.8049 T4         2 LUT      0.089537
    193 H362       87.4906   66.4481   33.9137 T4         2 LUT      0.089537
    194 H361       86.6644   65.8933   35.1368 T4         2 LUT      0.089537
    195 H222       88.0194   63.7646   32.5550 U2         2 LUT      0.127376
    196 H221       86.3593   63.5519   31.7642 U2         2 LUT      0.127376
    197 H203       72.9024   62.1144   38.7101 R7         2 LUT      0.087068
    198 H202       72.1037   61.1019   39.8027 R7         2 LUT      0.087068
    199 H201       71.1543   62.2845   39.3667 R7         2 LUT      0.087068
    200 H193       68.9877   59.1214   43.7638 R4         2 LUT      0.089716
    201 H192       67.6794   60.1833   43.5613 R4         2 LUT      0.089716
    202 H191       68.8667   60.0858   42.3022 R4         2 LUT      0.089716
    203 H183       65.1187   63.0860   46.1053 R1         2 LUT      0.094572
    204 H182       66.4839   64.1574   46.2755 R1         2 LUT      0.094572
    205 H181       66.6030   62.6217   45.2778 R1         2 LUT      0.094572
    206 H173       68.0890   62.2296   50.3941 T4         2 LUT      0.093752
    207 H172       68.8423   60.7747   50.8544 T4         2 LUT      0.093752
    208 H171       69.4624   61.7554   49.5330 T4         2 LUT      0.093752
    209 H163       69.1304   59.3386   48.0673 T4         2 LUT      0.093752
    210 H162       68.1698   58.5195   49.5468 T4         2 LUT      0.093752
    211 H161       67.5032   58.6130   47.9763 T4         2 LUT      0.093752
    212 HO3        65.1290   61.8514   51.5514 Q1         2 LUT      0.300121
    213 H8         69.1410   62.4334   45.9028 U7         2 LUT      0.080784
    214 H7         67.7035   59.8878   45.9590 U6         2 LUT      0.042190
    215 H42        65.0390   63.5211   48.2657 U5         2 LUT      0.145166
    216 H41        66.5616   63.7371   49.0741 U5         2 LUT      0.145166
    217 H35        76.1067   64.9786   40.7410 T3         2 LUT      0.077919
    218 H34        77.1990   63.5172   38.4605 T2         2 LUT      0.073626
    219 H32        79.1378   63.7391   37.6014 T1         2 LUT      0.092510
    220 H31        80.9879   66.0893   38.7086 U9         2 LUT      0.070048
    221 H30        81.3042   64.2886   36.3890 U8         2 LUT      0.085442
    222 H3         64.4725   61.6824   49.3676 U3         2 LUT     -0.031596
    223 H28        82.8151   64.3503   34.9074 U7         2 LUT      0.084728
    224 H27        84.4175   66.9967   34.3563 U6         2 LUT      0.087291
    225 H26        84.1283   64.4473   32.7798 Q6         2 LUT      0.075325
    226 H24        85.8705   66.5937   30.1135 Q5         2 LUT      0.094482
    227 H23        87.8222   65.9622   31.8885 U3         2 LUT     -0.024869
    228 H22        65.6760   59.8805   48.7872 U2         2 LUT      0.127376
    229 H21        66.2445   59.9585   50.4207 U2         2 LUT      0.127376
    230 H15        74.8984   62.8556   39.0082 T3         2 LUT      0.093200
    231 H14        74.1052   64.3461   41.6238 T2         2 LUT      0.068865
    232 H12        72.2685   63.6997   42.5346 T1         2 LUT      0.095507
    233 H11        70.6337   61.4242   41.5383 U9         2 LUT      0.068930
    234 H10        70.6545   63.0682   44.2022 U8         2 LUT      0.083911
    235 H1         87.2312   64.3609   29.4841 Q1         2 LUT      0.297311
@<TRIPOS>BOND
    1     6     1 1
    2     7     2 1
    3     8     3 1
    4     9     4 1
    5    11     4 1
    6    12     6 1
    7    13     9 1
    8    16     9 1
    9    25     5 1
   10    25    16 1
   11    26    10 1
   12    26    17 1
   13    27    18 1
   14    28    14 1
   15    28    19 1
   16    29    12 1
   17    30    13 1
   18    31    24 1
   19    32     1 1
   20    32    25 1
   21    33    21 1
   22    33    26 1
   23    34    22 1
   24    34    27 1
   25    35    23 1
   26    35    28 1
   27    36    12 1
   28    36    24 1
   29    37    13 1
   30    37    15 1
   31    38    31 1
   32    39    20 1
   33    39    32 1
   34    40     2 1
   35    40    33 1
   36    41     3 1
   37    41    34 1
   38    42     4 1
   39    42    35 1
   40    43    38 1
   41    44     5 1
   42    44    17 1
   43    44    39 1
   44    45    10 1
   45    45    18 1
   46    45    40 1
   47    46    19 1
   48    46    41 1
   49    47    14 1
   50    47    16 1
   51    47    42 1
   52    48    38 1
   53    49    48 1
   54    50    49 1
   55    51    50 1
   56    52    51 1
   57    53    51 1
   58    54    53 1
   59    55    54 1
   60    56    55 1
   61    57    56 1
   62    58    56 1
   63    59    58 1
   64    60    59 1
   65    61    60 1
   66    62    61 1
   67    63    61 1
   68    64    27 1
   69    64    46 1
   70    65     5 1
   71    65    10 1
   72    65    64 1
   73    65    14 1
   74    66    23 1
   75    67    23 1
   76    68    23 1
   77    69    22 1
   78    70    22 1
   79    71    22 1
   80    72    21 1
   81    73    21 1
   82    74    21 1
   83    75    20 1
   84    76    20 1
   85    77    20 1
   86    78    15 1
   87    79    15 1
   88    80    15 1
   89    81     8 1
   90    82     8 1
   91    83     8 1
   92    84     7 1
   93    85     7 1
   94    86     6 1
   95    87     6 1
   96    88     3 1
   97    89     3 1
   98    90     1 1
   99    91     1 1
  100    92    63 1
  101    93    63 1
  102    94    63 1
  103    95    62 1
  104    96    62 1
  105    97    62 1
  106    98    60 1
  107    99    60 1
  108   100    59 1
  109   101    59 1
  110   102    58 1
  111   103    58 1
  112   104    57 1
  113   105    57 1
  114   106    57 1
  115   107    55 1
  116   108    55 1
  117   109    54 1
  118   110    54 1
  119   111    53 1
  120   112    53 1
  121   113    19 1
  122   114    18 1
  123   115    17 1
  124   116     9 1
  125   117     2 1
  126   118    52 1
  127   119    52 1
  128   120    52 1
  129   121    51 1
  130   122    50 1
  131   123    50 1
  132   124    49 1
  133   125    49 1
  134   126    48 1
  135   127    48 1
  136   128    43 1
  137   129    43 1
  138   130    43 1
  139   131    39 1
  140   132    32 1
  141   133    31 1
  142   134    61 1
  143   135    56 1
  144   136    24 1
  145   137    24 1
  146   139   138 1
  147   140   139 1
  148   141   140 1
  149   142   140 1
  150   143   142 1
  151   144   138 1
  152   144   143 1
  153   145   144 1
  154   146   145 1
  155   147   146 1
  156   148   147 1
  157   149   148 1
  158   150   149 1
  159   151   150 1
  160   152   151 1
  161   153   152 1
  162   154   138 1
  163   155   138 1
  164   156   143 1
  165   157   147 1
  166   158   151 1
  167   160   159 1
  168   161   160 1
  169   162   161 1
  170   163   161 1
  171   164   163 1
  172   165   159 1
  173   165   164 1
  174   166   165 1
  175   167   166 1
  176   168   167 1
  177   169   168 1
  178   170   169 1
  179   171   170 1
  180   172   171 1
  181   173   172 1
  182   174   153 1
  183   174   173 1
  184   175   159 1
  185   176   159 1
  186   177   164 1
  187   178   168 1
  188   179   172 1
  189   180   179 1
  190   181   179 1
  191   182   179 1
  192   183   178 1
  193   184   178 1
  194   185   178 1
  195   186   177 1
  196   187   177 1
  197   188   177 1
  198   189   176 1
  199   190   176 1
  200   191   176 1
  201   192   175 1
  202   193   175 1
  203   194   175 1
  204   195   160 1
  205   196   160 1
  206   197   158 1
  207   198   158 1
  208   199   158 1
  209   200   157 1
  210   201   157 1
  211   202   157 1
  212   203   156 1
  213   204   156 1
  214   205   156 1
  215   206   155 1
  216   207   155 1
  217   208   155 1
  218   209   154 1
  219   210   154 1
  220   211   154 1
  221   212   141 1
  222   213   146 1
  223   214   145 1
  224   215   142 1
  225   216   142 1
  226   217   174 1
  227   218   173 1
  228   219   171 1
  229   220   170 1
  230   221   169 1
  231   222   140 1
  232   223   167 1
  233   224   166 1
  234   225   165 1
  235   226   163 1
  236   227   161 1
  237   228   139 1
  238   229   139 1
  239   230   153 1
  240   231   152 1
  241   232   150 1
  242   233   149 1
  243   234   148 1
  244   235   162 1
  245   65    153 1
  246   65    174 1
@<TRIPOS>SUBSTRUCTURE
      1 CLA               1 ****               0 ****  **** 
      2 LUT             138 ****               0 ****  **** 
