@<TRIPOS>MOLECULE
Cpptraj generated mol2 file.
  235   246     2     0     0
SMALL
USER_CHARGES


@<TRIPOS>ATOM
      1 CAA        79.4018   58.2239   35.1380 a2         1 CLA     -0.055900
      2 CAB        79.1071   62.1026   43.9867 c8         1 CLA     -0.148500
      3 CAC        72.0968   58.0033   43.2707 a2         1 CLA     -0.012600
      4 CAD        75.3511   55.5110   36.1743 ck         1 CLA      0.398800
      5 NA         78.2238   58.6610   38.3111 ns         1 CLA     -0.225500
      6 CBA        80.6816   58.1197   34.2059 a2         1 CLA     -0.135000
      7 CBB        80.2598   62.0762   44.6832 c0         1 CLA     -0.395200
      8 CBC        72.3985   56.6805   43.9900 a3         1 CLA     -0.037700
      9 CBD        76.7306   56.0724   35.8725 a1         1 CLA     -0.053900
     10 NB         77.9513   60.2537   40.8603 nm         1 CLA     -0.295700
     11 OBD        74.7591   54.6227   35.5089 o2         1 CLA     -0.494600
     12 CGA        81.2117   56.7054   33.9393 c4         1 CLA      0.827000
     13 CGD        77.7055   54.9073   35.8721 c4         1 CLA      0.655300
     14 ND         75.4242   57.8303   38.8004 nm         1 CLA     -0.291600
     15 CED        78.2910   52.6764   36.5545 a3         1 CLA      0.005400
     16 CHA        76.9841   57.0757   36.9824 cs         1 CLA     -0.123800
     17 CHB        79.9260   59.9624   39.4729 aa         1 CLA     -0.291900
     18 CHC        76.5846   60.4195   42.8432 aa         1 CLA     -0.090400
     19 CHD        73.4391   57.6967   40.2472 aa         1 CLA     -0.052000
     20 CMA        81.4854   57.6178   38.1256 a3         1 CLA     -0.230700
     21 CMB        81.2777   61.8131   41.4302 a3         1 CLA     -0.180800
     22 CMC        74.2420   59.8351   44.8107 a3         1 CLA     -0.134000
     23 CMD        72.4173   55.5991   38.1266 a3         1 CLA     -0.141100
     24 C1         82.6200   54.9500   34.9335 a2         1 CLA      0.023000
     25 C1A        78.1783   57.7860   37.2480 ac         1 CLA     -0.015100
     26 C1B        79.2691   60.4981   40.5896 cr         1 CLA      0.054700
     27 C1C        75.4410   59.6880   42.4644 cn         1 CLA     -0.005600
     28 C1D        74.1436   57.2535   39.0837 ap         1 CLA     -0.047300
     29 O1A        80.9162   56.0487   32.9688 o2         1 CLA     -0.610800
     30 O1D        78.7311   54.8816   35.1954 o2         1 CLA     -0.558200
     31 C2         83.1819   54.7833   36.2711 c8         1 CLA     -0.325100
     32 C2A        79.5329   57.6348   36.4978 a1         1 CLA      0.098600
     33 C2B        79.8409   61.3213   41.5184 cb         1 CLA      0.088500
     34 C2C        74.2911   59.4543   43.3554 cb         1 CLA      0.053700
     35 C2D        73.7030   56.3177   38.1191 cb         1 CLA      0.058900
     36 O2A        82.0562   56.3369   35.0136 o1         1 CLA     -0.437200
     37 O2D        77.4828   53.9269   36.7869 o1         1 CLA     -0.357600
     38 C3         84.5089   54.6574   36.4674 c5         1 CLA      0.031200
     39 C3A        80.4625   58.4739   37.4520 a1         1 CLA      0.166800
     40 C3B        78.9004   61.4315   42.6085 cb         1 CLA      0.035000
     41 C3C        73.3857   58.6640   42.6253 cb         1 CLA     -0.089900
     42 C3D        74.8315   56.1943   37.2758 cb         1 CLA     -0.035900
     43 C4         85.2124   53.3198   36.4331 a3         1 CLA     -0.053300
     44 C4A        79.4897   59.1049   38.4873 ac         1 CLA      0.001800
     45 C4B        77.7605   60.6501   42.1517 cn         1 CLA     -0.020900
     46 C4C        73.9892   58.5069   41.3055 cr         1 CLA     -0.044400
     47 C4D        75.7983   57.1688   37.7066 c6         1 CLA     -0.046000
     48 C5         85.3771   55.9064   36.7860 a2         1 CLA     -0.070400
     49 C6         85.1743   56.4822   38.1897 a2         1 CLA      0.043900
     50 C7         86.1067   57.5714   38.6269 a2         1 CLA     -0.150000
     51 C8         87.6226   57.0722   39.0377 a1         1 CLA      0.064200
     52 C9         88.5458   56.1019   38.2420 a3         1 CLA     -0.259300
     53 C10        87.4876   56.6094   40.5426 a2         1 CLA     -0.071900
     54 C11        87.0750   57.5900   41.6267 a2         1 CLA      0.014500
     55 C12        87.2373   57.1722   43.1317 a2         1 CLA     -0.112100
     56 C13        86.6816   58.2525   44.0982 a1         1 CLA      0.089200
     57 C14        87.3911   59.5291   43.7482 a3         1 CLA     -0.239100
     58 C15        86.9185   57.8308   45.5964 a2         1 CLA     -0.102200
     59 C16        86.1208   58.7194   46.6628 a2         1 CLA      0.023900
     60 C17        84.6221   58.6911   46.3221 a2         1 CLA     -0.105700
     61 C18        83.7829   59.1500   47.5039 a1         1 CLA      0.206800
     62 C19        84.3256   60.4565   48.0410 a3         1 CLA     -0.280100
     63 C20        82.2925   59.2490   47.0371 a3         1 CLA     -0.280100
     64 NC         75.1824   59.1912   41.1971 nx         1 CLA     -0.309200
     65 MG         76.5437   59.2157   39.6499 mg         1 CLA      0.895000
     66 HMD3       71.6022   56.2955   37.8734 dc         1 CLA      0.064300
     67 HMD2       72.4596   54.8101   37.3532 dc         1 CLA      0.064300
     68 HMD1       72.3733   55.1633   39.1274 dc         1 CLA      0.064300
     69 HMC3       73.3434   59.4306   45.3134 dc         1 CLA      0.052100
     70 HMC2       75.0344   59.4199   45.3429 dc         1 CLA      0.052100
     71 HMC1       74.2957   60.9122   45.0268 dc         1 CLA      0.052100
     72 HMB3       81.3084   62.1945   40.4191 dc         1 CLA      0.063600
     73 HMB2       81.4979   62.5822   42.1626 dc         1 CLA      0.063600
     74 HMB1       81.9459   60.9643   41.4494 dc         1 CLA      0.063600
     75 HMA3       82.1678   58.1937   38.7862 dc         1 CLA      0.058300
     76 HMA2       80.8176   57.0368   38.7674 dc         1 CLA      0.058300
     77 HMA1       81.9926   57.0486   37.3434 dc         1 CLA      0.058300
     78 HED3       78.1509   52.0552   37.4230 dc         1 CLA      0.079300
     79 HED2       77.7242   52.1001   35.7286 dc         1 CLA      0.079300
     80 HED1       79.3231   52.9013   36.3057 dc         1 CLA      0.079300
     81 HBC3       72.7496   56.0133   43.2709 dc         1 CLA      0.016300
     82 HBC2       73.1249   56.7893   44.8077 dc         1 CLA      0.016300
     83 HBC1       71.4498   56.3358   44.3779 dc         1 CLA      0.016300
     84 HBB2       80.3880   62.5176   45.7129 da         1 CLA      0.183000
     85 HBB1       81.1912   61.6007   44.3342 da         1 CLA      0.183000
     86 HBA2       80.4869   58.5585   33.2750 dc         1 CLA      0.029400
     87 HBA1       81.5269   58.6806   34.5577 dc         1 CLA      0.029400
     88 HAC2       71.6311   58.6532   43.9350 dc         1 CLA      0.029300
     89 HAC1       71.3290   57.8134   42.5560 dc         1 CLA      0.029300
     90 HAA2       78.6117   57.6181   34.6847 dc         1 CLA      0.028700
     91 HAA1       79.0610   59.3028   35.1822 dc         1 CLA      0.028700
     92 H203       81.8639   58.4109   46.4927 dc         1 CLA      0.065600
     93 H202       81.7930   59.2405   48.0108 dc         1 CLA      0.065600
     94 H201       81.9462   60.0244   46.3614 dc         1 CLA      0.065600
     95 H193       84.7050   61.1218   47.2413 dc         1 CLA      0.065600
     96 H192       83.5585   60.9787   48.4616 dc         1 CLA      0.065600
     97 H191       85.1378   60.2082   48.7880 dc         1 CLA      0.065600
     98 H172       84.3538   59.1328   45.3433 dc         1 CLA      0.027600
     99 H171       84.3929   57.6514   46.0695 dc         1 CLA      0.027600
    100 H162       86.4240   58.3718   47.6467 dc         1 CLA      0.002900
    101 H161       86.4944   59.8032   46.6666 dc         1 CLA      0.002900
    102 H152       86.7494   56.7654   45.6406 dc         1 CLA      0.029100
    103 H151       87.9509   58.0169   46.0506 dc         1 CLA      0.029100
    104 H143       88.4741   59.2532   43.6367 dc         1 CLA      0.063600
    105 H142       87.0460   59.9666   42.8309 dc         1 CLA      0.063600
    106 H141       87.3800   60.2192   44.5853 dc         1 CLA      0.063600
    107 H122       86.5713   56.4152   43.2862 dc         1 CLA      0.032500
    108 H121       88.3231   56.9105   43.2676 dc         1 CLA      0.032500
    109 H112       87.7540   58.4712   41.5272 dc         1 CLA      0.006600
    110 H111       86.0823   57.7895   41.4815 dc         1 CLA      0.006600
    111 H102       86.7646   55.7782   40.6349 dc         1 CLA      0.024100
    112 H101       88.4889   56.2100   40.9312 dc         1 CLA      0.024100
    113 HHD        72.4251   57.2165   40.3562 da         1 CLA      0.174300
    114 HHC        76.6160   60.8225   43.7894 da         1 CLA      0.136800
    115 HHB        80.9457   60.2535   39.3025 da         1 CLA      0.138300
    116 HBD        76.6421   56.5683   34.8859 dc         1 CLA      0.107700
    117 HAB        78.1777   62.5226   44.4125 da         1 CLA      0.155200
    118 H93        88.0359   55.1172   38.3013 dc         1 CLA      0.069500
    119 H92        88.6504   56.3939   37.1557 dc         1 CLA      0.069500
    120 H91        89.5857   56.0564   38.6295 dc         1 CLA      0.069500
    121 H8         88.1137   57.9780   39.1379 dc         1 CLA      0.029300
    122 H72        86.3392   58.1771   37.7779 dc         1 CLA      0.044400
    123 H71        85.6193   58.1326   39.3906 dc         1 CLA      0.044400
    124 H62        84.1821   56.8876   38.3103 dc         1 CLA      0.015600
    125 H61        85.3180   55.5966   38.8795 dc         1 CLA      0.015600
    126 H52        86.4499   55.7774   36.6010 dc         1 CLA      0.033200
    127 H51        85.0109   56.5711   36.0504 dc         1 CLA      0.033200
    128 H43        86.0402   53.3835   37.1459 dc         1 CLA      0.037000
    129 H42        84.5508   52.5150   36.6921 dc         1 CLA      0.037000
    130 H41        85.5543   53.2459   35.4211 dc         1 CLA      0.037000
    131 H3A        80.9536   59.3317   36.8789 dc         1 CLA      0.041100
    132 H2A        79.8949   56.5632   36.4369 dc         1 CLA      0.083100
    133 H2         82.4621   54.9290   37.0633 da         1 CLA      0.180900
    134 H18        83.8364   58.3075   48.1920 dc         1 CLA     -0.003900
    135 H13        85.6428   58.3618   43.8250 dc         1 CLA      0.019700
    136 H12        81.7785   54.2890   34.8835 dc         1 CLA      0.120400
    137 H11        83.3284   54.8272   34.1405 dc         1 CLA      0.120400
    138 C1         69.3100   62.1240   49.6208 Z1         2 LUT      0.509236
    139 C2         68.0186   61.6291   50.3661 Z2         2 LUT     -0.434695
    140 C3         67.1410   62.7643   50.9481 Z3         2 LUT      0.437453
    141 O3         67.0425   62.7754   52.3525 S1         2 LUT     -0.547129
    142 C4         67.3244   64.1114   50.2777 Z4         2 LUT     -0.468603
    143 C5         68.0072   64.1144   48.9474 Z5         2 LUT      0.279246
    144 C6         68.9409   63.2097   48.5916 Z6         2 LUT     -0.305473
    145 C7         69.5351   63.0132   47.3010 Z7         2 LUT      0.069402
    146 C8         70.8095   63.2690   47.0129 Z8         2 LUT     -0.191631
    147 C9         71.3438   62.8104   45.7843 Z9         2 LUT      0.196698
    148 C10        72.4309   63.5351   45.2674 Y1         2 LUT     -0.208611
    149 C11        73.2544   63.3284   44.1123 Y2         2 LUT      0.030784
    150 C12        74.4113   63.9184   43.7657 Y3         2 LUT     -0.220316
    151 C13        75.2765   63.7168   42.6389 Y4         2 LUT      0.215937
    152 C14        76.4956   64.3542   42.5759 Y5         2 LUT     -0.185793
    153 C15        77.5539   64.3557   41.6464 Y6         2 LUT     -0.057835
    154 C16        69.9990   60.8453   49.0564 Y7         2 LUT     -0.405615
    155 C17        70.2366   62.6619   50.7572 Y7         2 LUT     -0.405615
    156 C18        67.3291   65.0764   47.9666 Y9         2 LUT     -0.369639
    157 C19        70.9414   61.5381   45.1931 W1         2 LUT     -0.333362
    158 C20        74.7331   63.1453   41.3420 W2         2 LUT     -0.323439
    159 C21        88.6571   65.4983   35.1498 Z1         2 LUT      0.406104
    160 C22        89.4433   65.0679   33.9204 Z2         2 LUT     -0.404965
    161 C23        89.2211   65.8092   32.5941 Z3         2 LUT      0.391255
    162 O23        89.8116   64.9003   31.6279 S1         2 LUT     -0.528210
    163 C24        87.8293   66.4712   32.4700 W6         2 LUT     -0.258361
    164 C25        86.8824   66.5152   33.4063 Z5         2 LUT      0.133546
    165 C26        87.0977   65.8823   34.8122 W8         2 LUT     -0.147008
    166 C27        86.4355   66.7321   35.8615 Z7         2 LUT      0.023843
    167 C28        85.2894   66.4541   36.5507 Z8         2 LUT     -0.216987
    168 C29        84.6301   67.0061   37.6819 Z9         2 LUT      0.206524
    169 C30        83.5919   66.3243   38.2202 Y1         2 LUT     -0.215556
    170 C31        82.7871   66.5414   39.3246 Y2         2 LUT      0.025142
    171 C32        81.7264   65.7563   39.6877 Y3         2 LUT     -0.212209
    172 C33        80.8799   66.0309   40.8284 Y4         2 LUT      0.240937
    173 C34        79.7875   65.2250   40.9055 Y5         2 LUT     -0.218862
    174 C35        78.6904   65.1241   41.8780 Y6         2 LUT     -0.023547
    175 C36        89.4882   66.6951   35.6831 Y7         2 LUT     -0.393485
    176 C37        88.8894   64.2947   36.1597 Y7         2 LUT     -0.393485
    177 C38        85.5328   67.1592   33.2457 Y9         2 LUT     -0.387526
    178 C39        85.1051   68.4046   38.2533 W1         2 LUT     -0.322618
    179 C40        81.0333   67.3406   41.6249 W2         2 LUT     -0.358472
    180 H403       82.0307   67.5873   42.0236 R7         2 LUT      0.097720
    181 H402       80.7825   68.1849   40.8979 R7         2 LUT      0.097720
    182 H401       80.2951   67.5296   42.4626 R7         2 LUT      0.097720
    183 H393       84.2731   69.0367   38.2214 R4         2 LUT      0.082505
    184 H392       85.3887   68.3177   39.2557 R4         2 LUT      0.082505
    185 H391       85.9336   68.9439   37.7733 R4         2 LUT      0.082505
    186 H383       85.4386   68.1402   33.7564 R1         2 LUT      0.104030
    187 H382       85.2893   67.4481   32.2692 R1         2 LUT      0.104030
    188 H381       84.6831   66.5734   33.6210 R1         2 LUT      0.104030
    189 H373       88.5354   63.3319   35.7110 T4         2 LUT      0.089537
    190 H372       89.9196   64.1799   36.4913 T4         2 LUT      0.089537
    191 H371       88.3129   64.3178   37.0688 T4         2 LUT      0.089537
    192 H363       89.0746   66.9951   36.6055 T4         2 LUT      0.089537
    193 H362       90.5668   66.5934   35.8834 T4         2 LUT      0.089537
    194 H361       89.5705   67.4429   34.9819 T4         2 LUT      0.089537
    195 H222       90.5046   65.0530   34.1509 U2         2 LUT      0.127376
    196 H221       89.1492   64.0711   33.6298 U2         2 LUT      0.127376
    197 H203       74.7824   62.0719   41.2574 R7         2 LUT      0.087068
    198 H202       73.6817   63.3004   41.2341 R7         2 LUT      0.087068
    199 H201       75.2215   63.5710   40.4558 R7         2 LUT      0.087068
    200 H193       71.4926   61.1888   44.3524 R4         2 LUT      0.089716
    201 H192       70.9612   60.7736   46.0081 R4         2 LUT      0.089716
    202 H191       69.9278   61.5419   44.7405 R4         2 LUT      0.089716
    203 H183       66.3345   65.2214   48.2906 R1         2 LUT      0.094572
    204 H182       67.8939   66.0001   47.8242 R1         2 LUT      0.094572
    205 H181       67.1828   64.5446   47.0090 R1         2 LUT      0.094572
    206 H173       71.2731   62.6661   50.3202 T4         2 LUT      0.093752
    207 H172       69.9995   63.6475   51.2085 T4         2 LUT      0.093752
    208 H171       70.3540   61.9636   51.5721 T4         2 LUT      0.093752
    209 H163       71.0293   61.0584   48.6243 T4         2 LUT      0.093752
    210 H162       70.1381   60.0505   49.8028 T4         2 LUT      0.093752
    211 H161       69.3247   60.4440   48.3202 T4         2 LUT      0.093752
    212 HO3        67.8880   62.6165   52.8108 Q1         2 LUT      0.300121
    213 H8         71.4136   63.8796   47.7298 U7         2 LUT      0.080784
    214 H7         68.8742   62.6955   46.4633 U6         2 LUT      0.042190
    215 H42        66.3982   64.5949   50.3158 U5         2 LUT      0.145166
    216 H41        67.9087   64.6018   51.1005 U5         2 LUT      0.145166
    217 H35        78.8044   65.7120   42.7872 T3         2 LUT      0.077919
    218 H34        79.5788   64.4669   40.1027 T2         2 LUT      0.073626
    219 H32        81.5825   64.8236   39.1722 T1         2 LUT      0.092510
    220 H31        83.1530   67.4056   39.8642 U9         2 LUT      0.070048
    221 H30        83.2228   65.4222   37.6295 U8         2 LUT      0.085442
    222 H3         66.1108   62.5547   50.6475 U3         2 LUT     -0.031596
    223 H28        84.7121   65.5652   36.2043 U7         2 LUT      0.084728
    224 H27        86.8622   67.6791   36.2298 U6         2 LUT      0.087291
    225 H26        86.5498   64.9239   34.6457 Q6         2 LUT      0.075325
    226 H24        87.6055   66.9293   31.4953 Q5         2 LUT      0.094482
    227 H23        89.8311   66.7229   32.5931 U3         2 LUT     -0.024869
    228 H22        67.3809   61.3606   49.5384 U2         2 LUT      0.127376
    229 H21        68.1637   60.8559   51.0600 U2         2 LUT      0.127376
    230 H15        77.5152   64.0220   40.6154 T3         2 LUT      0.093200
    231 H14        76.7242   64.9677   43.4741 T2         2 LUT      0.068865
    232 H12        74.9568   64.5121   44.5487 T1         2 LUT      0.095507
    233 H11        72.9664   62.5252   43.3964 U9         2 LUT      0.068930
    234 H10        72.7515   64.3833   45.9465 U8         2 LUT      0.083911
    235 H1         89.1358   64.7945   30.9143 Q1         2 LUT      0.297311
@<TRIPOS>BOND
    1     6     1 1
    2     7     2 1
    3     8     3 1
    4     9     4 1
    5    11     4 1
    6    12     6 1
    7    13     9 1
    8    16     9 1
    9    25     5 1
   10    25    16 1
   11    26    10 1
   12    26    17 1
   13    27    18 1
   14    28    14 1
   15    28    19 1
   16    29    12 1
   17    30    13 1
   18    31    24 1
   19    32     1 1
   20    32    25 1
   21    33    21 1
   22    33    26 1
   23    34    22 1
   24    34    27 1
   25    35    23 1
   26    35    28 1
   27    36    12 1
   28    36    24 1
   29    37    13 1
   30    37    15 1
   31    38    31 1
   32    39    20 1
   33    39    32 1
   34    40     2 1
   35    40    33 1
   36    41     3 1
   37    41    34 1
   38    42     4 1
   39    42    35 1
   40    43    38 1
   41    44     5 1
   42    44    17 1
   43    44    39 1
   44    45    10 1
   45    45    18 1
   46    45    40 1
   47    46    19 1
   48    46    41 1
   49    47    14 1
   50    47    16 1
   51    47    42 1
   52    48    38 1
   53    49    48 1
   54    50    49 1
   55    51    50 1
   56    52    51 1
   57    53    51 1
   58    54    53 1
   59    55    54 1
   60    56    55 1
   61    57    56 1
   62    58    56 1
   63    59    58 1
   64    60    59 1
   65    61    60 1
   66    62    61 1
   67    63    61 1
   68    64    27 1
   69    64    46 1
   70    65     5 1
   71    65    10 1
   72    65    64 1
   73    65    14 1
   74    66    23 1
   75    67    23 1
   76    68    23 1
   77    69    22 1
   78    70    22 1
   79    71    22 1
   80    72    21 1
   81    73    21 1
   82    74    21 1
   83    75    20 1
   84    76    20 1
   85    77    20 1
   86    78    15 1
   87    79    15 1
   88    80    15 1
   89    81     8 1
   90    82     8 1
   91    83     8 1
   92    84     7 1
   93    85     7 1
   94    86     6 1
   95    87     6 1
   96    88     3 1
   97    89     3 1
   98    90     1 1
   99    91     1 1
  100    92    63 1
  101    93    63 1
  102    94    63 1
  103    95    62 1
  104    96    62 1
  105    97    62 1
  106    98    60 1
  107    99    60 1
  108   100    59 1
  109   101    59 1
  110   102    58 1
  111   103    58 1
  112   104    57 1
  113   105    57 1
  114   106    57 1
  115   107    55 1
  116   108    55 1
  117   109    54 1
  118   110    54 1
  119   111    53 1
  120   112    53 1
  121   113    19 1
  122   114    18 1
  123   115    17 1
  124   116     9 1
  125   117     2 1
  126   118    52 1
  127   119    52 1
  128   120    52 1
  129   121    51 1
  130   122    50 1
  131   123    50 1
  132   124    49 1
  133   125    49 1
  134   126    48 1
  135   127    48 1
  136   128    43 1
  137   129    43 1
  138   130    43 1
  139   131    39 1
  140   132    32 1
  141   133    31 1
  142   134    61 1
  143   135    56 1
  144   136    24 1
  145   137    24 1
  146   139   138 1
  147   140   139 1
  148   141   140 1
  149   142   140 1
  150   143   142 1
  151   144   138 1
  152   144   143 1
  153   145   144 1
  154   146   145 1
  155   147   146 1
  156   148   147 1
  157   149   148 1
  158   150   149 1
  159   151   150 1
  160   152   151 1
  161   153   152 1
  162   154   138 1
  163   155   138 1
  164   156   143 1
  165   157   147 1
  166   158   151 1
  167   160   159 1
  168   161   160 1
  169   162   161 1
  170   163   161 1
  171   164   163 1
  172   165   159 1
  173   165   164 1
  174   166   165 1
  175   167   166 1
  176   168   167 1
  177   169   168 1
  178   170   169 1
  179   171   170 1
  180   172   171 1
  181   173   172 1
  182   174   153 1
  183   174   173 1
  184   175   159 1
  185   176   159 1
  186   177   164 1
  187   178   168 1
  188   179   172 1
  189   180   179 1
  190   181   179 1
  191   182   179 1
  192   183   178 1
  193   184   178 1
  194   185   178 1
  195   186   177 1
  196   187   177 1
  197   188   177 1
  198   189   176 1
  199   190   176 1
  200   191   176 1
  201   192   175 1
  202   193   175 1
  203   194   175 1
  204   195   160 1
  205   196   160 1
  206   197   158 1
  207   198   158 1
  208   199   158 1
  209   200   157 1
  210   201   157 1
  211   202   157 1
  212   203   156 1
  213   204   156 1
  214   205   156 1
  215   206   155 1
  216   207   155 1
  217   208   155 1
  218   209   154 1
  219   210   154 1
  220   211   154 1
  221   212   141 1
  222   213   146 1
  223   214   145 1
  224   215   142 1
  225   216   142 1
  226   217   174 1
  227   218   173 1
  228   219   171 1
  229   220   170 1
  230   221   169 1
  231   222   140 1
  232   223   167 1
  233   224   166 1
  234   225   165 1
  235   226   163 1
  236   227   161 1
  237   228   139 1
  238   229   139 1
  239   230   153 1
  240   231   152 1
  241   232   150 1
  242   233   149 1
  243   234   148 1
  244   235   162 1
  245   65    153 1
  246   65    174 1
@<TRIPOS>SUBSTRUCTURE
      1 CLA               1 ****               0 ****  **** 
      2 LUT             138 ****               0 ****  **** 
