@<TRIPOS>MOLECULE
Cpptraj generated mol2 file.
  235   246     2     0     0
SMALL
USER_CHARGES


@<TRIPOS>ATOM
      1 CAA        80.5496   59.4854   34.2719 a2         1 CLA     -0.055900
      2 CAB        79.8856   62.6220   43.3274 c8         1 CLA     -0.148500
      3 CAC        73.1778   58.6413   42.0413 a2         1 CLA     -0.012600
      4 CAD        76.3497   56.6598   34.9136 ck         1 CLA      0.398800
      5 NA         79.3463   59.4832   37.6082 ns         1 CLA     -0.225500
      6 CBA        81.8129   59.3952   33.3538 a2         1 CLA     -0.135000
      7 CBB        80.9180   62.5414   44.2095 c0         1 CLA     -0.395200
      8 CBC        73.1939   57.1788   42.4388 a3         1 CLA     -0.037700
      9 CBD        77.8480   57.2306   34.8308 a1         1 CLA     -0.053900
     10 NB         79.0054   60.9489   40.0606 nm         1 CLA     -0.295700
     11 OBD        75.7578   55.9787   34.0824 o2         1 CLA     -0.494600
     12 CGA        82.3098   58.0214   32.9363 c4         1 CLA      0.827000
     13 CGD        78.7836   56.0902   34.5025 c4         1 CLA      0.655300
     14 ND         76.6553   58.3930   37.9695 nm         1 CLA     -0.291600
     15 CED        80.2522   54.3651   35.4618 a3         1 CLA      0.005400
     16 CHA        78.0583   58.1605   36.0187 cs         1 CLA     -0.123800
     17 CHB        81.0870   60.7301   38.7600 aa         1 CLA     -0.291900
     18 CHC        77.6002   61.0094   42.1012 aa         1 CLA     -0.090400
     19 CHD        74.6034   58.3752   39.2998 aa         1 CLA     -0.052000
     20 CMA        82.5510   58.3338   37.3282 a3         1 CLA     -0.230700
     21 CMB        82.2806   62.4252   41.0281 a3         1 CLA     -0.180800
     22 CMC        75.2057   60.6419   43.8139 a3         1 CLA     -0.134000
     23 CMD        73.5464   56.3641   36.9420 a3         1 CLA     -0.141100
     24 C1         83.8754   56.2868   33.7599 a2         1 CLA      0.023000
     25 C1A        79.2691   58.8022   36.4216 ac         1 CLA     -0.015100
     26 C1B        80.3520   61.1719   39.8704 cr         1 CLA      0.054700
     27 C1C        76.4982   60.3128   41.6201 cn         1 CLA     -0.005600
     28 C1D        75.3348   57.9383   38.1727 ap         1 CLA     -0.047300
     29 O1A        81.7071   57.2317   32.2411 o2         1 CLA     -0.610800
     30 O1D        79.1569   55.7923   33.3506 o2         1 CLA     -0.558200
     31 C2         84.5905   56.0744   35.0870 c8         1 CLA     -0.325100
     32 C2A        80.6350   58.7559   35.6739 a1         1 CLA      0.098600
     33 C2B        80.8567   62.0017   40.9540 cb         1 CLA      0.088500
     34 C2C        75.3443   60.1381   42.4338 cb         1 CLA      0.053700
     35 C2D        74.8829   57.0417   37.1048 cb         1 CLA      0.058900
     36 O2A        83.4721   57.7066   33.7202 o1         1 CLA     -0.437200
     37 O2D        79.3360   55.5202   35.6253 o1         1 CLA     -0.357600
     38 C3         84.5212   54.9860   35.9108 c5         1 CLA      0.031200
     39 C3A        81.6368   59.3579   36.7097 a1         1 CLA      0.166800
     40 C3B        79.8476   62.0832   41.9516 cb         1 CLA      0.035000
     41 C3C        74.4992   59.2755   41.7105 cb         1 CLA     -0.089900
     42 C3D        75.9298   57.0924   36.2092 cb         1 CLA     -0.035900
     43 C4         83.3728   54.8330   36.9648 a3         1 CLA     -0.053300
     44 C4A        80.6368   59.8652   37.8290 ac         1 CLA      0.001800
     45 C4B        78.7727   61.3548   41.3671 cn         1 CLA     -0.020900
     46 C4C        75.1439   59.0865   40.4353 cr         1 CLA     -0.044400
     47 C4D        76.9077   57.9342   36.7390 c6         1 CLA     -0.046000
     48 C5         85.8026   54.0756   35.9592 a2         1 CLA     -0.070400
     49 C6         87.0310   54.6058   36.7177 a2         1 CLA      0.043900
     50 C7         86.6502   55.1270   38.1152 a2         1 CLA     -0.150000
     51 C8         87.7562   55.7888   38.9808 a1         1 CLA      0.064200
     52 C9         88.8646   54.7420   39.4035 a3         1 CLA     -0.259300
     53 C10        87.0420   56.3656   40.2530 a2         1 CLA     -0.071900
     54 C11        87.7210   57.6609   40.8202 a2         1 CLA      0.014500
     55 C12        86.9875   58.1260   42.0516 a2         1 CLA     -0.112100
     56 C13        87.4852   59.4499   42.7742 a1         1 CLA      0.089200
     57 C14        88.9578   59.8847   42.4241 a3         1 CLA     -0.239100
     58 C15        87.2747   59.3724   44.3517 a2         1 CLA     -0.102200
     59 C16        85.8792   58.8853   44.8176 a2         1 CLA      0.023900
     60 C17        85.6922   59.0674   46.4004 a2         1 CLA     -0.105700
     61 C18        85.7032   60.5040   47.0342 a1         1 CLA      0.206800
     62 C19        84.7698   61.5645   46.3632 a3         1 CLA     -0.280100
     63 C20        85.4021   60.4811   48.5548 a3         1 CLA     -0.280100
     64 NC         76.3636   59.7641   40.4636 nx         1 CLA     -0.309200
     65 MG         77.7540   59.7406   38.9290 mg         1 CLA      0.895000
     66 HMD3       73.7299   55.4127   36.3663 dc         1 CLA      0.064300
     67 HMD2       73.2721   56.1681   37.9924 dc         1 CLA      0.064300
     68 HMD1       72.9195   57.1577   36.4186 dc         1 CLA      0.064300
     69 HMC3       75.7090   60.0328   44.5072 dc         1 CLA      0.052100
     70 HMC2       75.5081   61.6525   43.9063 dc         1 CLA      0.052100
     71 HMC1       74.1112   60.7696   44.0893 dc         1 CLA      0.052100
     72 HMB3       82.3288   63.4155   40.6387 dc         1 CLA      0.063600
     73 HMB2       82.6635   62.4652   42.0527 dc         1 CLA      0.063600
     74 HMB1       82.8683   61.6793   40.5649 dc         1 CLA      0.063600
     75 HMA3       81.9350   57.6036   37.8620 dc         1 CLA      0.058300
     76 HMA2       83.0989   57.8829   36.4566 dc         1 CLA      0.058300
     77 HMA1       83.2772   58.8147   37.9604 dc         1 CLA      0.058300
     78 HED3       80.0525   53.7614   34.5458 dc         1 CLA      0.079300
     79 HED2       81.2809   54.7429   35.4235 dc         1 CLA      0.079300
     80 HED1       80.2474   53.7878   36.4089 dc         1 CLA      0.079300
     81 HBC3       73.7392   56.6114   41.6835 dc         1 CLA      0.016300
     82 HBC2       73.5756   56.9089   43.3785 dc         1 CLA      0.016300
     83 HBC1       72.1696   56.7185   42.4289 dc         1 CLA      0.016300
     84 HBB2       80.7517   62.8897   45.2550 da         1 CLA      0.183000
     85 HBB1       81.7505   61.8366   43.9982 da         1 CLA      0.183000
     86 HBA2       81.5998   59.9411   32.4608 dc         1 CLA      0.029400
     87 HBA1       82.6189   59.9157   33.8644 dc         1 CLA      0.029400
     88 HAC2       72.6363   59.2305   42.7991 dc         1 CLA      0.029300
     89 HAC1       72.5707   58.8061   41.1331 dc         1 CLA      0.029300
     90 HAA2       79.6879   59.1895   33.6919 dc         1 CLA      0.028700
     91 HAA1       80.3506   60.5169   34.4820 dc         1 CLA      0.028700
     92 H203       84.3983   60.3026   48.8139 dc         1 CLA      0.065600
     93 H202       86.1030   59.8644   49.1038 dc         1 CLA      0.065600
     94 H201       85.5506   61.5121   48.8833 dc         1 CLA      0.065600
     95 H193       83.8156   61.3529   46.6741 dc         1 CLA      0.065600
     96 H192       85.0837   62.5600   46.7286 dc         1 CLA      0.065600
     97 H191       84.8526   61.6305   45.2653 dc         1 CLA      0.065600
     98 H172       84.6759   58.7028   46.5471 dc         1 CLA      0.027600
     99 H171       86.4547   58.4528   46.9209 dc         1 CLA      0.027600
    100 H162       85.2451   59.6002   44.2707 dc         1 CLA      0.002900
    101 H161       85.6781   57.8933   44.3543 dc         1 CLA      0.002900
    102 H152       88.0355   58.7576   44.8062 dc         1 CLA      0.029100
    103 H151       87.3451   60.3814   44.7218 dc         1 CLA      0.029100
    104 H143       89.0978   59.8783   41.3253 dc         1 CLA      0.063600
    105 H142       89.2834   60.8171   42.8391 dc         1 CLA      0.063600
    106 H141       89.4926   59.1364   42.9876 dc         1 CLA      0.063600
    107 H122       85.9779   58.3838   41.9015 dc         1 CLA      0.032500
    108 H121       87.0468   57.3718   42.8734 dc         1 CLA      0.032500
    109 H112       88.7824   57.4401   41.0797 dc         1 CLA      0.006600
    110 H111       87.8660   58.3754   40.0457 dc         1 CLA      0.006600
    111 H102       86.1564   56.8042   39.9110 dc         1 CLA      0.024100
    112 H101       86.8628   55.6555   41.0135 dc         1 CLA      0.024100
    113 HHD        73.5476   58.0859   39.3916 da         1 CLA      0.174300
    114 HHC        77.5640   61.2927   43.1637 da         1 CLA      0.136800
    115 HHB        82.1368   61.0546   38.6564 da         1 CLA      0.138300
    116 HBD        77.7665   57.8475   33.8933 dc         1 CLA      0.107700
    117 HAB        78.9050   63.0443   43.6498 da         1 CLA      0.155200
    118 H93        89.7569   55.2564   39.6673 dc         1 CLA      0.069500
    119 H92        88.5648   54.0359   40.1520 dc         1 CLA      0.069500
    120 H91        89.1548   54.1748   38.4955 dc         1 CLA      0.069500
    121 H8         88.2253   56.5337   38.3143 dc         1 CLA      0.029300
    122 H72        85.8857   55.8836   37.9200 dc         1 CLA      0.044400
    123 H71        86.2853   54.2584   38.7420 dc         1 CLA      0.044400
    124 H62        87.7529   53.8259   36.6779 dc         1 CLA      0.015600
    125 H61        87.3977   55.3862   36.1715 dc         1 CLA      0.015600
    126 H52        85.5101   53.2115   36.4536 dc         1 CLA      0.033200
    127 H51        86.1400   53.7502   35.0033 dc         1 CLA      0.033200
    128 H43        83.8387   54.8214   37.9362 dc         1 CLA      0.037000
    129 H42        82.6152   55.6449   36.8207 dc         1 CLA      0.037000
    130 H41        82.9329   53.8642   36.6973 dc         1 CLA      0.037000
    131 H3A        82.1558   60.2389   36.2975 dc         1 CLA      0.041100
    132 H2A        80.8232   57.6873   35.4157 dc         1 CLA      0.083100
    133 H2         85.1255   56.9086   35.5331 da         1 CLA      0.180900
    134 H18        86.7272   60.7957   46.8722 dc         1 CLA     -0.003900
    135 H13        86.8949   60.2905   42.4370 dc         1 CLA      0.019700
    136 H12        82.8844   55.7527   33.8610 dc         1 CLA      0.120400
    137 H11        84.4672   55.9705   32.9145 dc         1 CLA      0.120400
    138 C1         69.7326   62.1787   49.7407 Z1         2 LUT      0.509236
    139 C2         68.3212   61.9116   50.2739 Z2         2 LUT     -0.434695
    140 C3         67.4264   63.0854   50.4238 Z3         2 LUT      0.437453
    141 O3         67.4113   63.6063   51.7751 S1         2 LUT     -0.547129
    142 C4         67.9009   64.3281   49.5737 Z4         2 LUT     -0.468603
    143 C5         68.7873   64.0552   48.3481 Z5         2 LUT      0.279246
    144 C6         69.6949   63.0779   48.3915 Z6         2 LUT     -0.305473
    145 C7         70.4048   62.5593   47.2552 Z7         2 LUT      0.069402
    146 C8         71.2236   63.1379   46.4016 Z8         2 LUT     -0.191631
    147 C9         71.6929   62.7309   45.0919 Z9         2 LUT      0.196698
    148 C10        72.6571   63.5039   44.5071 Y1         2 LUT     -0.208611
    149 C11        73.3969   63.3316   43.3446 Y2         2 LUT      0.030784
    150 C12        74.5218   64.0945   42.9957 Y3         2 LUT     -0.220316
    151 C13        75.4402   63.8936   41.8870 Y4         2 LUT      0.215937
    152 C14        76.5847   64.6740   42.0315 Y5         2 LUT     -0.185793
    153 C15        77.6885   64.6752   41.0865 Y6         2 LUT     -0.057835
    154 C16        70.4373   60.7697   49.4713 Y7         2 LUT     -0.405615
    155 C17        70.5097   62.8432   50.8723 Y7         2 LUT     -0.405615
    156 C18        68.3712   64.8572   47.1691 Y9         2 LUT     -0.369639
    157 C19        71.2604   61.3967   44.5464 W1         2 LUT     -0.333362
    158 C20        75.0553   63.1648   40.7016 W2         2 LUT     -0.323439
    159 C21        88.7504   66.3470   34.5633 Z1         2 LUT      0.406104
    160 C22        89.4776   66.0174   33.2311 Z2         2 LUT     -0.404965
    161 C23        89.3730   67.1834   32.2065 Z3         2 LUT      0.391255
    162 O23        90.0804   66.6917   31.0850 S1         2 LUT     -0.528210
    163 C24        87.9866   67.7853   32.1371 W6         2 LUT     -0.258361
    164 C25        87.0181   67.5570   33.0033 Z5         2 LUT      0.133546
    165 C26        87.2685   66.7462   34.3076 W8         2 LUT     -0.147008
    166 C27        86.5434   67.3582   35.4816 Z7         2 LUT      0.023843
    167 C28        85.7165   66.6803   36.3024 Z8         2 LUT     -0.216987
    168 C29        85.1974   67.0247   37.5907 Z9         2 LUT      0.206524
    169 C30        84.1341   66.2429   38.0194 Y1         2 LUT     -0.215556
    170 C31        83.3289   66.3237   39.1617 Y2         2 LUT      0.025142
    171 C32        82.1772   65.6715   39.2904 Y3         2 LUT     -0.212209
    172 C33        81.2386   65.8700   40.4187 Y4         2 LUT      0.240937
    173 C34        79.9681   65.2833   40.4305 Y5         2 LUT     -0.218862
    174 C35        78.8879   65.2396   41.3631 Y6         2 LUT     -0.023547
    175 C36        89.7307   67.3380   35.2752 Y7         2 LUT     -0.393485
    176 C37        88.8701   65.0476   35.4367 Y7         2 LUT     -0.393485
    177 C38        85.5560   68.0278   32.8003 Y9         2 LUT     -0.387526
    178 C39        85.8842   68.2143   38.3019 W1         2 LUT     -0.322618
    179 C40        81.6523   66.7644   41.5429 W2         2 LUT     -0.358472
    180 H403       82.7193   66.6995   41.8546 R7         2 LUT      0.097720
    181 H402       81.6337   67.7821   41.1610 R7         2 LUT      0.097720
    182 H401       80.9672   66.6788   42.4403 R7         2 LUT      0.097720
    183 H393       85.2738   68.5677   39.0505 R4         2 LUT      0.082505
    184 H392       86.8592   67.9125   38.6575 R4         2 LUT      0.082505
    185 H391       86.0220   69.0357   37.5656 R4         2 LUT      0.082505
    186 H383       85.3606   68.5203   31.8425 R1         2 LUT      0.104030
    187 H382       84.9712   67.0760   32.7364 R1         2 LUT      0.104030
    188 H381       85.2633   68.7864   33.6145 R1         2 LUT      0.104030
    189 H373       89.9060   64.6304   35.5238 T4         2 LUT      0.089537
    190 H372       88.4493   65.2077   36.4427 T4         2 LUT      0.089537
    191 H371       88.2975   64.1528   35.0028 T4         2 LUT      0.089537
    192 H363       89.8053   68.2389   34.6417 T4         2 LUT      0.089537
    193 H362       89.3139   67.6186   36.2247 T4         2 LUT      0.089537
    194 H361       90.7279   66.9342   35.3203 T4         2 LUT      0.089537
    195 H222       90.5467   65.7792   33.4125 U2         2 LUT      0.127376
    196 H221       89.1817   65.0959   32.7673 U2         2 LUT      0.127376
    197 H203       75.8535   62.5213   40.2877 R7         2 LUT      0.087068
    198 H202       74.3103   62.3871   40.8540 R7         2 LUT      0.087068
    199 H201       74.7395   63.8570   39.9024 R7         2 LUT      0.087068
    200 H193       70.2110   61.2280   44.6451 R4         2 LUT      0.089716
    201 H192       71.1553   61.3708   43.4521 R4         2 LUT      0.089716
    202 H191       71.6153   60.4972   45.0424 R4         2 LUT      0.089716
    203 H183       67.2923   64.9489   47.2115 R1         2 LUT      0.094572
    204 H182       68.9161   65.8170   47.1652 R1         2 LUT      0.094572
    205 H181       68.5691   64.3353   46.2167 R1         2 LUT      0.094572
    206 H173       70.1848   63.8816   51.0325 T4         2 LUT      0.093752
    207 H172       70.5132   62.3472   51.8497 T4         2 LUT      0.093752
    208 H171       71.5604   62.9398   50.6527 T4         2 LUT      0.093752
    209 H163       71.3249   60.9260   48.9104 T4         2 LUT      0.093752
    210 H162       70.8118   60.2236   50.2874 T4         2 LUT      0.093752
    211 H161       69.8176   60.2382   48.7897 T4         2 LUT      0.093752
    212 HO3        66.7757   63.0605   52.2975 Q1         2 LUT      0.300121
    213 H8         71.4486   64.1866   46.7352 U7         2 LUT      0.080784
    214 H7         70.0635   61.5102   47.0070 U6         2 LUT      0.042190
    215 H42        66.9593   64.8294   49.2289 U5         2 LUT      0.145166
    216 H41        68.3902   65.0838   50.2459 U5         2 LUT      0.145166
    217 H35        78.9091   65.6522   42.3097 T3         2 LUT      0.077919
    218 H34        79.8445   64.6860   39.5115 T2         2 LUT      0.073626
    219 H32        81.8189   65.0275   38.4555 T1         2 LUT      0.092510
    220 H31        83.7094   67.0238   39.8764 U9         2 LUT      0.070048
    221 H30        83.7559   65.5122   37.3168 U8         2 LUT      0.085442
    222 H3         66.4377   62.8550   50.0539 U3         2 LUT     -0.031596
    223 H28        85.2326   65.8241   35.9077 U7         2 LUT      0.084728
    224 H27        87.1105   68.2219   35.8799 U6         2 LUT      0.087291
    225 H26        86.6144   65.9173   33.9597 Q6         2 LUT      0.075325
    226 H24        87.8322   68.3424   31.2361 Q5         2 LUT      0.094482
    227 H23        89.9907   68.0216   32.5651 U3         2 LUT     -0.024869
    228 H22        67.7216   61.1700   49.7151 U2         2 LUT      0.127376
    229 H21        68.3754   61.5006   51.3202 U2         2 LUT      0.127376
    230 H15        77.6147   64.1947   40.1380 T3         2 LUT      0.093200
    231 H14        76.6366   65.2845   42.9366 T2         2 LUT      0.068865
    232 H12        74.7803   64.7769   43.8378 T1         2 LUT      0.095507
    233 H11        72.9379   62.6151   42.7183 U9         2 LUT      0.068930
    234 H10        72.8149   64.4100   45.1015 U8         2 LUT      0.083911
    235 H1         89.4417   66.3804   30.4365 Q1         2 LUT      0.297311
@<TRIPOS>BOND
    1     6     1 1
    2     7     2 1
    3     8     3 1
    4     9     4 1
    5    11     4 1
    6    12     6 1
    7    13     9 1
    8    16     9 1
    9    25     5 1
   10    25    16 1
   11    26    10 1
   12    26    17 1
   13    27    18 1
   14    28    14 1
   15    28    19 1
   16    29    12 1
   17    30    13 1
   18    31    24 1
   19    32     1 1
   20    32    25 1
   21    33    21 1
   22    33    26 1
   23    34    22 1
   24    34    27 1
   25    35    23 1
   26    35    28 1
   27    36    12 1
   28    36    24 1
   29    37    13 1
   30    37    15 1
   31    38    31 1
   32    39    20 1
   33    39    32 1
   34    40     2 1
   35    40    33 1
   36    41     3 1
   37    41    34 1
   38    42     4 1
   39    42    35 1
   40    43    38 1
   41    44     5 1
   42    44    17 1
   43    44    39 1
   44    45    10 1
   45    45    18 1
   46    45    40 1
   47    46    19 1
   48    46    41 1
   49    47    14 1
   50    47    16 1
   51    47    42 1
   52    48    38 1
   53    49    48 1
   54    50    49 1
   55    51    50 1
   56    52    51 1
   57    53    51 1
   58    54    53 1
   59    55    54 1
   60    56    55 1
   61    57    56 1
   62    58    56 1
   63    59    58 1
   64    60    59 1
   65    61    60 1
   66    62    61 1
   67    63    61 1
   68    64    27 1
   69    64    46 1
   70    65     5 1
   71    65    10 1
   72    65    64 1
   73    65    14 1
   74    66    23 1
   75    67    23 1
   76    68    23 1
   77    69    22 1
   78    70    22 1
   79    71    22 1
   80    72    21 1
   81    73    21 1
   82    74    21 1
   83    75    20 1
   84    76    20 1
   85    77    20 1
   86    78    15 1
   87    79    15 1
   88    80    15 1
   89    81     8 1
   90    82     8 1
   91    83     8 1
   92    84     7 1
   93    85     7 1
   94    86     6 1
   95    87     6 1
   96    88     3 1
   97    89     3 1
   98    90     1 1
   99    91     1 1
  100    92    63 1
  101    93    63 1
  102    94    63 1
  103    95    62 1
  104    96    62 1
  105    97    62 1
  106    98    60 1
  107    99    60 1
  108   100    59 1
  109   101    59 1
  110   102    58 1
  111   103    58 1
  112   104    57 1
  113   105    57 1
  114   106    57 1
  115   107    55 1
  116   108    55 1
  117   109    54 1
  118   110    54 1
  119   111    53 1
  120   112    53 1
  121   113    19 1
  122   114    18 1
  123   115    17 1
  124   116     9 1
  125   117     2 1
  126   118    52 1
  127   119    52 1
  128   120    52 1
  129   121    51 1
  130   122    50 1
  131   123    50 1
  132   124    49 1
  133   125    49 1
  134   126    48 1
  135   127    48 1
  136   128    43 1
  137   129    43 1
  138   130    43 1
  139   131    39 1
  140   132    32 1
  141   133    31 1
  142   134    61 1
  143   135    56 1
  144   136    24 1
  145   137    24 1
  146   139   138 1
  147   140   139 1
  148   141   140 1
  149   142   140 1
  150   143   142 1
  151   144   138 1
  152   144   143 1
  153   145   144 1
  154   146   145 1
  155   147   146 1
  156   148   147 1
  157   149   148 1
  158   150   149 1
  159   151   150 1
  160   152   151 1
  161   153   152 1
  162   154   138 1
  163   155   138 1
  164   156   143 1
  165   157   147 1
  166   158   151 1
  167   160   159 1
  168   161   160 1
  169   162   161 1
  170   163   161 1
  171   164   163 1
  172   165   159 1
  173   165   164 1
  174   166   165 1
  175   167   166 1
  176   168   167 1
  177   169   168 1
  178   170   169 1
  179   171   170 1
  180   172   171 1
  181   173   172 1
  182   174   153 1
  183   174   173 1
  184   175   159 1
  185   176   159 1
  186   177   164 1
  187   178   168 1
  188   179   172 1
  189   180   179 1
  190   181   179 1
  191   182   179 1
  192   183   178 1
  193   184   178 1
  194   185   178 1
  195   186   177 1
  196   187   177 1
  197   188   177 1
  198   189   176 1
  199   190   176 1
  200   191   176 1
  201   192   175 1
  202   193   175 1
  203   194   175 1
  204   195   160 1
  205   196   160 1
  206   197   158 1
  207   198   158 1
  208   199   158 1
  209   200   157 1
  210   201   157 1
  211   202   157 1
  212   203   156 1
  213   204   156 1
  214   205   156 1
  215   206   155 1
  216   207   155 1
  217   208   155 1
  218   209   154 1
  219   210   154 1
  220   211   154 1
  221   212   141 1
  222   213   146 1
  223   214   145 1
  224   215   142 1
  225   216   142 1
  226   217   174 1
  227   218   173 1
  228   219   171 1
  229   220   170 1
  230   221   169 1
  231   222   140 1
  232   223   167 1
  233   224   166 1
  234   225   165 1
  235   226   163 1
  236   227   161 1
  237   228   139 1
  238   229   139 1
  239   230   153 1
  240   231   152 1
  241   232   150 1
  242   233   149 1
  243   234   148 1
  244   235   162 1
  245   65    153 1
  246   65    174 1
@<TRIPOS>SUBSTRUCTURE
      1 CLA               1 ****               0 ****  **** 
      2 LUT             138 ****               0 ****  **** 
