@<TRIPOS>MOLECULE
Cpptraj generated mol2 file.
  235   246     2     0     0
SMALL
USER_CHARGES


@<TRIPOS>ATOM
      1 CAA        80.4287   59.6147   34.1478 a2         1 CLA     -0.055900
      2 CAB        80.0960   62.8659   43.0556 c8         1 CLA     -0.148500
      3 CAC        73.2162   58.8297   42.3051 a2         1 CLA     -0.012600
      4 CAD        76.1030   56.8566   34.9820 ck         1 CLA      0.398800
      5 NA         79.2190   59.6668   37.4488 ns         1 CLA     -0.225500
      6 CBA        81.7289   59.5171   33.2516 a2         1 CLA     -0.135000
      7 CBB        81.3075   62.8631   43.6743 c0         1 CLA     -0.395200
      8 CBC        73.2986   57.3735   42.5147 a3         1 CLA     -0.037700
      9 CBD        77.5649   57.4553   34.7489 a1         1 CLA     -0.053900
     10 NB         78.9659   61.1508   39.9272 nm         1 CLA     -0.295700
     11 OBD        75.5215   56.0657   34.2080 o2         1 CLA     -0.494600
     12 CGA        82.2219   58.1601   32.8593 c4         1 CLA      0.827000
     13 CGD        78.5323   56.4133   34.3713 c4         1 CLA      0.655300
     14 ND         76.4591   58.8194   37.8857 nm         1 CLA     -0.291600
     15 CED        79.3067   54.2032   34.8051 a3         1 CLA      0.005400
     16 CHA        77.8444   58.4106   35.8893 cs         1 CLA     -0.123800
     17 CHB        80.9371   61.0600   38.4211 aa         1 CLA     -0.291900
     18 CHC        77.6548   61.1932   42.0034 aa         1 CLA     -0.090400
     19 CHD        74.4943   58.6661   39.3007 aa         1 CLA     -0.052000
     20 CMA        82.7221   58.7738   36.9915 a3         1 CLA     -0.230700
     21 CMB        82.2196   62.9588   40.4962 a3         1 CLA     -0.180800
     22 CMC        75.4474   60.4032   44.0534 a3         1 CLA     -0.134000
     23 CMD        73.2466   57.0132   36.9120 a3         1 CLA     -0.141100
     24 C1         83.4413   56.2967   33.5604 a2         1 CLA      0.023000
     25 C1A        79.0882   58.9533   36.2327 ac         1 CLA     -0.015100
     26 C1B        80.2966   61.4356   39.6134 cr         1 CLA      0.054700
     27 C1C        76.4976   60.5161   41.6214 cn         1 CLA     -0.005600
     28 C1D        75.0747   58.4191   38.0891 ap         1 CLA     -0.047300
     29 O1A        81.8352   57.5424   31.8884 o2         1 CLA     -0.610800
     30 O1D        79.3930   56.5584   33.5006 o2         1 CLA     -0.558200
     31 C2         84.3062   56.0298   34.7649 c8         1 CLA     -0.325100
     32 C2A        80.4792   58.8905   35.5312 a1         1 CLA      0.098600
     33 C2B        80.8749   62.2139   40.6265 cb         1 CLA      0.088500
     34 C2C        75.3833   60.2079   42.5364 cb         1 CLA      0.053700
     35 C2D        74.5788   57.6653   37.0068 cb         1 CLA      0.058900
     36 O2A        83.0836   57.6280   33.7682 o1         1 CLA     -0.437200
     37 O2D        78.2429   55.1926   35.0592 o1         1 CLA     -0.357600
     38 C3         84.9647   54.9348   35.1212 c5         1 CLA      0.031200
     39 C3A        81.4769   59.6466   36.4856 a1         1 CLA      0.166800
     40 C3B        79.9592   62.2316   41.6960 cb         1 CLA      0.035000
     41 C3C        74.4865   59.4434   41.7712 cb         1 CLA     -0.089900
     42 C3D        75.6621   57.5021   36.1984 cb         1 CLA     -0.035900
     43 C4         84.2699   53.9126   35.8689 a3         1 CLA     -0.053300
     44 C4A        80.4743   60.1852   37.4770 ac         1 CLA      0.001800
     45 C4B        78.8014   61.4883   41.2410 cn         1 CLA     -0.020900
     46 C4C        75.0358   59.3575   40.3980 cr         1 CLA     -0.044400
     47 C4D        76.7633   58.3315   36.6722 c6         1 CLA     -0.046000
     48 C5         86.3930   54.6797   34.7758 a2         1 CLA     -0.070400
     49 C6         87.3509   55.6863   35.4523 a2         1 CLA      0.043900
     50 C7         87.5861   55.3973   36.9318 a2         1 CLA     -0.150000
     51 C8         88.5771   56.3923   37.6147 a1         1 CLA      0.064200
     52 C9         90.0258   56.0755   37.2345 a3         1 CLA     -0.259300
     53 C10        88.3859   56.5512   39.1352 a2         1 CLA     -0.071900
     54 C11        87.3756   57.5520   39.5804 a2         1 CLA      0.014500
     55 C12        87.3438   57.6557   41.0830 a2         1 CLA     -0.112100
     56 C13        87.1014   58.9974   41.8342 a1         1 CLA      0.089200
     57 C14        88.3026   59.9563   41.4679 a3         1 CLA     -0.239100
     58 C15        87.0273   58.7419   43.3891 a2         1 CLA     -0.102200
     59 C16        85.8463   57.8947   43.9657 a2         1 CLA      0.023900
     60 C17        85.6635   57.8613   45.4915 a2         1 CLA     -0.105700
     61 C18        85.4677   59.2483   46.1747 a1         1 CLA      0.206800
     62 C19        84.2981   60.1515   45.5250 a3         1 CLA     -0.280100
     63 C20        85.2473   58.9671   47.6549 a3         1 CLA     -0.280100
     64 NC         76.2940   59.9879   40.3836 nx         1 CLA     -0.309200
     65 MG         77.6367   60.0444   38.8241 mg         1 CLA      0.895000
     66 HMD3       72.4925   57.7224   37.0875 dc         1 CLA      0.064300
     67 HMD2       73.1124   56.5642   35.8806 dc         1 CLA      0.064300
     68 HMD1       73.1283   56.1907   37.6459 dc         1 CLA      0.064300
     69 HMC3       75.2501   61.4540   44.3029 dc         1 CLA      0.052100
     70 HMC2       74.6392   59.8154   44.4894 dc         1 CLA      0.052100
     71 HMC1       76.4578   60.1020   44.4849 dc         1 CLA      0.052100
     72 HMB3       82.4137   63.3532   39.5049 dc         1 CLA      0.063600
     73 HMB2       82.2525   63.7374   41.2879 dc         1 CLA      0.063600
     74 HMB1       82.9637   62.2754   40.9254 dc         1 CLA      0.063600
     75 HMA3       82.4010   57.7540   37.2987 dc         1 CLA      0.058300
     76 HMA2       83.3838   58.6527   36.1773 dc         1 CLA      0.058300
     77 HMA1       83.2192   59.2337   37.8751 dc         1 CLA      0.058300
     78 HED3       79.2484   54.0171   33.7484 dc         1 CLA      0.079300
     79 HED2       80.2821   54.5899   35.0028 dc         1 CLA      0.079300
     80 HED1       79.0668   53.2427   35.2274 dc         1 CLA      0.079300
     81 HBC3       73.7495   56.7695   41.7021 dc         1 CLA      0.016300
     82 HBC2       73.8722   57.1096   43.3911 dc         1 CLA      0.016300
     83 HBC1       72.2993   57.0269   42.7249 dc         1 CLA      0.016300
     84 HBB2       81.5305   63.3596   44.6596 da         1 CLA      0.183000
     85 HBB1       82.1761   62.4398   43.2200 da         1 CLA      0.183000
     86 HBA2       81.4319   59.9428   32.2766 dc         1 CLA      0.029400
     87 HBA1       82.4514   60.0833   33.8728 dc         1 CLA      0.029400
     88 HAC2       73.0129   59.3462   43.2383 dc         1 CLA      0.029300
     89 HAC1       72.3676   58.9436   41.6063 dc         1 CLA      0.029300
     90 HAA2       79.5450   59.2497   33.6240 dc         1 CLA      0.028700
     91 HAA1       80.2318   60.6923   34.4183 dc         1 CLA      0.028700
     92 H203       84.3577   58.3797   47.7413 dc         1 CLA      0.065600
     93 H202       86.1056   58.4405   48.0616 dc         1 CLA      0.065600
     94 H201       85.1962   59.8658   48.2652 dc         1 CLA      0.065600
     95 H193       83.4877   59.5608   45.6364 dc         1 CLA      0.065600
     96 H192       84.1082   61.1188   46.0322 dc         1 CLA      0.065600
     97 H191       84.5158   60.3924   44.4736 dc         1 CLA      0.065600
     98 H172       84.8447   57.2769   45.7320 dc         1 CLA      0.027600
     99 H171       86.6659   57.4467   45.8919 dc         1 CLA      0.027600
    100 H162       84.8809   58.1415   43.5045 dc         1 CLA      0.002900
    101 H161       86.0173   56.8941   43.6399 dc         1 CLA      0.002900
    102 H152       87.9853   58.1805   43.6987 dc         1 CLA      0.029100
    103 H151       86.9787   59.7253   43.8298 dc         1 CLA      0.029100
    104 H143       88.5067   60.1061   40.3746 dc         1 CLA      0.063600
    105 H142       88.2335   60.9395   41.9103 dc         1 CLA      0.063600
    106 H141       89.1792   59.5203   41.9671 dc         1 CLA      0.063600
    107 H122       86.5130   57.0729   41.3755 dc         1 CLA      0.032500
    108 H121       88.2875   57.2622   41.5386 dc         1 CLA      0.032500
    109 H112       87.5697   58.4198   39.0519 dc         1 CLA      0.006600
    110 H111       86.3659   57.1803   39.3051 dc         1 CLA      0.006600
    111 H102       88.0671   55.5628   39.5401 dc         1 CLA      0.024100
    112 H101       89.3158   56.7573   39.6776 dc         1 CLA      0.024100
    113 HHD        73.5212   58.1856   39.5193 da         1 CLA      0.174300
    114 HHC        77.7004   61.5576   43.0097 da         1 CLA      0.136800
    115 HHB        81.9793   61.4647   38.3337 da         1 CLA      0.138300
    116 HBD        77.3731   58.0181   33.8420 dc         1 CLA      0.107700
    117 HAB        79.2083   63.3860   43.5241 da         1 CLA      0.155200
    118 H93        90.1840   55.0595   37.7044 dc         1 CLA      0.069500
    119 H92        90.1526   56.0213   36.1523 dc         1 CLA      0.069500
    120 H91        90.7117   56.7613   37.7964 dc         1 CLA      0.069500
    121 H8         88.2449   57.4024   37.2312 dc         1 CLA      0.029300
    122 H72        86.7102   55.3191   37.5413 dc         1 CLA      0.044400
    123 H71        87.9484   54.3869   37.1001 dc         1 CLA      0.044400
    124 H62        88.2750   55.4903   34.9948 dc         1 CLA      0.015600
    125 H61        86.8776   56.6519   35.1904 dc         1 CLA      0.015600
    126 H52        86.6455   53.6502   35.1374 dc         1 CLA      0.033200
    127 H51        86.4121   54.7289   33.6463 dc         1 CLA      0.033200
    128 H43        84.7727   53.6392   36.8229 dc         1 CLA      0.037000
    129 H42        83.2621   54.1241   36.0658 dc         1 CLA      0.037000
    130 H41        84.3071   52.9298   35.3030 dc         1 CLA      0.037000
    131 H3A        81.8825   60.5022   36.0449 dc         1 CLA      0.041100
    132 H2A        80.7620   57.8340   35.4119 dc         1 CLA      0.083100
    133 H2         84.4599   56.9270   35.3558 da         1 CLA      0.180900
    134 H18        86.4126   59.7597   46.1459 dc         1 CLA     -0.003900
    135 H13        86.1624   59.4358   41.4446 dc         1 CLA      0.019700
    136 H12        82.5742   55.5819   33.6565 dc         1 CLA      0.120400
    137 H11        84.0166   56.1691   32.5998 dc         1 CLA      0.120400
    138 C1         69.6517   61.8468   49.3233 Z1         2 LUT      0.509236
    139 C2         68.2863   61.4461   50.0313 Z2         2 LUT     -0.434695
    140 C3         67.4818   62.5903   50.5466 Z3         2 LUT      0.437453
    141 O3         67.5567   62.3324   51.9546 S1         2 LUT     -0.547129
    142 C4         67.9186   63.9669   50.0074 Z4         2 LUT     -0.468603
    143 C5         68.4482   63.9108   48.6439 Z5         2 LUT      0.279246
    144 C6         69.3607   62.9143   48.3120 Z6         2 LUT     -0.305473
    145 C7         69.7008   62.5483   46.9149 Z7         2 LUT      0.069402
    146 C8         70.6859   63.2108   46.2414 Z8         2 LUT     -0.191631
    147 C9         71.2746   62.9313   44.8750 Z9         2 LUT      0.196698
    148 C10        72.2825   63.6700   44.4886 Y1         2 LUT     -0.208611
    149 C11        73.0641   63.4601   43.2612 Y2         2 LUT      0.030784
    150 C12        74.2028   64.2876   43.0211 Y3         2 LUT     -0.220316
    151 C13        75.0573   64.1235   41.8118 Y4         2 LUT      0.215937
    152 C14        76.2498   64.8200   41.8829 Y5         2 LUT     -0.185793
    153 C15        77.3137   64.8121   40.9464 Y6         2 LUT     -0.057835
    154 C16        70.1972   60.4601   48.9095 Y7         2 LUT     -0.405615
    155 C17        70.5567   62.4180   50.5116 Y7         2 LUT     -0.405615
    156 C18        67.5471   64.6397   47.6821 Y9         2 LUT     -0.369639
    157 C19        70.7223   61.7853   44.0805 W1         2 LUT     -0.333362
    158 C20        74.7273   63.2676   40.5278 W2         2 LUT     -0.323439
    159 C21        88.9412   66.1604   34.8469 Z1         2 LUT      0.406104
    160 C22        89.7167   65.7879   33.5039 Z2         2 LUT     -0.404965
    161 C23        89.7269   66.9278   32.3913 Z3         2 LUT      0.391255
    162 O23        90.4930   66.4870   31.2770 S1         2 LUT     -0.528210
    163 C24        88.2653   67.2358   32.1514 W6         2 LUT     -0.258361
    164 C25        87.2419   67.0622   33.0164 Z5         2 LUT      0.133546
    165 C26        87.4334   66.3908   34.3927 W8         2 LUT     -0.147008
    166 C27        86.7299   67.0841   35.5291 Z7         2 LUT      0.023843
    167 C28        85.6442   66.6621   36.2367 Z8         2 LUT     -0.216987
    168 C29        84.8097   67.2816   37.2298 Z9         2 LUT      0.206524
    169 C30        83.7492   66.5047   37.5574 Y1         2 LUT     -0.215556
    170 C31        82.7970   66.6743   38.6444 Y2         2 LUT      0.025142
    171 C32        81.7034   65.8677   38.9274 Y3         2 LUT     -0.212209
    172 C33        80.7987   66.0114   40.0610 Y4         2 LUT      0.240937
    173 C34        79.7122   65.2611   40.1779 Y5         2 LUT     -0.218862
    174 C35        78.5993   65.3887   41.1141 Y6         2 LUT     -0.023547
    175 C36        89.5862   67.3139   35.5066 Y7         2 LUT     -0.393485
    176 C37        89.2039   64.8306   35.6809 Y7         2 LUT     -0.393485
    177 C38        85.9011   67.6176   32.7143 Y9         2 LUT     -0.387526
    178 C39        85.1796   68.6127   37.8578 W1         2 LUT     -0.322618
    179 C40        81.2686   67.0667   41.0753 W2         2 LUT     -0.358472
    180 H403       80.9859   68.1227   40.7886 R7         2 LUT      0.097720
    181 H402       80.8022   66.9185   42.0259 R7         2 LUT      0.097720
    182 H401       82.2639   67.0160   41.4212 R7         2 LUT      0.097720
    183 H393       84.3969   69.0100   38.4887 R4         2 LUT      0.082505
    184 H392       85.9978   68.5684   38.5429 R4         2 LUT      0.082505
    185 H391       85.4502   69.2463   37.0250 R4         2 LUT      0.082505
    186 H383       85.1315   66.7641   32.7091 R1         2 LUT      0.104030
    187 H382       85.6690   68.3773   33.4064 R1         2 LUT      0.104030
    188 H381       85.9751   68.1794   31.7193 R1         2 LUT      0.104030
    189 H373       90.2473   64.6465   35.9919 T4         2 LUT      0.089537
    190 H372       88.5892   64.8648   36.6024 T4         2 LUT      0.089537
    191 H371       88.8240   63.9397   35.1657 T4         2 LUT      0.089537
    192 H363       89.4983   68.2728   34.9941 T4         2 LUT      0.089537
    193 H362       89.3669   67.4478   36.5673 T4         2 LUT      0.089537
    194 H361       90.6386   67.1964   35.6796 T4         2 LUT      0.089537
    195 H222       90.7610   65.6133   33.7139 U2         2 LUT      0.127376
    196 H221       89.2928   64.9032   32.9982 U2         2 LUT      0.127376
    197 H203       74.7301   63.8135   39.6375 R7         2 LUT      0.087068
    198 H202       75.3486   62.3900   40.3619 R7         2 LUT      0.087068
    199 H201       73.7097   62.9353   40.6218 R7         2 LUT      0.087068
    200 H193       70.7414   61.8143   42.9602 R4         2 LUT      0.089716
    201 H192       71.3689   60.9108   44.2389 R4         2 LUT      0.089716
    202 H191       69.8087   61.3336   44.4300 R4         2 LUT      0.089716
    203 H183       67.2743   63.8971   46.9398 R1         2 LUT      0.094572
    204 H182       66.5722   65.0669   48.0749 R1         2 LUT      0.094572
    205 H181       68.0662   65.4576   47.2212 R1         2 LUT      0.094572
    206 H173       70.1177   63.0217   51.2331 T4         2 LUT      0.093752
    207 H172       71.0866   61.5653   51.0957 T4         2 LUT      0.093752
    208 H171       71.3331   63.0162   50.1093 T4         2 LUT      0.093752
    209 H163       71.2561   60.4976   48.5794 T4         2 LUT      0.093752
    210 H162       70.1311   59.7131   49.7410 T4         2 LUT      0.093752
    211 H161       69.5994   60.0040   48.0921 T4         2 LUT      0.093752
    212 HO3        67.1593   63.0162   52.5565 Q1         2 LUT      0.300121
    213 H8         71.1097   64.0069   46.7506 U7         2 LUT      0.080784
    214 H7         69.3557   61.6301   46.4652 U6         2 LUT      0.042190
    215 H42        67.0936   64.6779   50.0542 U5         2 LUT      0.145166
    216 H41        68.5691   64.4861   50.7734 U5         2 LUT      0.145166
    217 H35        78.6634   65.9627   42.0432 T3         2 LUT      0.077919
    218 H34        79.6413   64.5557   39.3413 T2         2 LUT      0.073626
    219 H32        81.5147   65.0998   38.1958 T1         2 LUT      0.092510
    220 H31        83.0019   67.4700   39.3496 U9         2 LUT      0.070048
    221 H30        83.6428   65.6585   36.9800 U8         2 LUT      0.085442
    222 H3         66.3790   62.4651   50.3592 U3         2 LUT     -0.031596
    223 H28        85.1359   65.7104   35.8923 U7         2 LUT      0.084728
    224 H27        86.9142   68.0533   35.9043 U6         2 LUT      0.087291
    225 H26        87.0542   65.3457   34.3721 Q6         2 LUT      0.075325
    226 H24        88.0477   67.7467   31.2639 Q5         2 LUT      0.094482
    227 H23        90.2848   67.7599   32.9366 U3         2 LUT     -0.024869
    228 H22        67.6172   61.1698   49.1865 U2         2 LUT      0.127376
    229 H21        68.4236   60.6331   50.7693 U2         2 LUT      0.127376
    230 H15        77.1630   64.2613   40.0486 T3         2 LUT      0.093200
    231 H14        76.5257   65.4431   42.8069 T2         2 LUT      0.068865
    232 H12        74.5259   64.9688   43.8120 T1         2 LUT      0.095507
    233 H11        72.7957   62.7486   42.5500 U9         2 LUT      0.068930
    234 H10        72.6170   64.4949   45.1308 U8         2 LUT      0.083911
    235 H1         89.9346   66.1147   30.5607 Q1         2 LUT      0.297311
@<TRIPOS>BOND
    1     6     1 1
    2     7     2 1
    3     8     3 1
    4     9     4 1
    5    11     4 1
    6    12     6 1
    7    13     9 1
    8    16     9 1
    9    25     5 1
   10    25    16 1
   11    26    10 1
   12    26    17 1
   13    27    18 1
   14    28    14 1
   15    28    19 1
   16    29    12 1
   17    30    13 1
   18    31    24 1
   19    32     1 1
   20    32    25 1
   21    33    21 1
   22    33    26 1
   23    34    22 1
   24    34    27 1
   25    35    23 1
   26    35    28 1
   27    36    12 1
   28    36    24 1
   29    37    13 1
   30    37    15 1
   31    38    31 1
   32    39    20 1
   33    39    32 1
   34    40     2 1
   35    40    33 1
   36    41     3 1
   37    41    34 1
   38    42     4 1
   39    42    35 1
   40    43    38 1
   41    44     5 1
   42    44    17 1
   43    44    39 1
   44    45    10 1
   45    45    18 1
   46    45    40 1
   47    46    19 1
   48    46    41 1
   49    47    14 1
   50    47    16 1
   51    47    42 1
   52    48    38 1
   53    49    48 1
   54    50    49 1
   55    51    50 1
   56    52    51 1
   57    53    51 1
   58    54    53 1
   59    55    54 1
   60    56    55 1
   61    57    56 1
   62    58    56 1
   63    59    58 1
   64    60    59 1
   65    61    60 1
   66    62    61 1
   67    63    61 1
   68    64    27 1
   69    64    46 1
   70    65     5 1
   71    65    10 1
   72    65    64 1
   73    65    14 1
   74    66    23 1
   75    67    23 1
   76    68    23 1
   77    69    22 1
   78    70    22 1
   79    71    22 1
   80    72    21 1
   81    73    21 1
   82    74    21 1
   83    75    20 1
   84    76    20 1
   85    77    20 1
   86    78    15 1
   87    79    15 1
   88    80    15 1
   89    81     8 1
   90    82     8 1
   91    83     8 1
   92    84     7 1
   93    85     7 1
   94    86     6 1
   95    87     6 1
   96    88     3 1
   97    89     3 1
   98    90     1 1
   99    91     1 1
  100    92    63 1
  101    93    63 1
  102    94    63 1
  103    95    62 1
  104    96    62 1
  105    97    62 1
  106    98    60 1
  107    99    60 1
  108   100    59 1
  109   101    59 1
  110   102    58 1
  111   103    58 1
  112   104    57 1
  113   105    57 1
  114   106    57 1
  115   107    55 1
  116   108    55 1
  117   109    54 1
  118   110    54 1
  119   111    53 1
  120   112    53 1
  121   113    19 1
  122   114    18 1
  123   115    17 1
  124   116     9 1
  125   117     2 1
  126   118    52 1
  127   119    52 1
  128   120    52 1
  129   121    51 1
  130   122    50 1
  131   123    50 1
  132   124    49 1
  133   125    49 1
  134   126    48 1
  135   127    48 1
  136   128    43 1
  137   129    43 1
  138   130    43 1
  139   131    39 1
  140   132    32 1
  141   133    31 1
  142   134    61 1
  143   135    56 1
  144   136    24 1
  145   137    24 1
  146   139   138 1
  147   140   139 1
  148   141   140 1
  149   142   140 1
  150   143   142 1
  151   144   138 1
  152   144   143 1
  153   145   144 1
  154   146   145 1
  155   147   146 1
  156   148   147 1
  157   149   148 1
  158   150   149 1
  159   151   150 1
  160   152   151 1
  161   153   152 1
  162   154   138 1
  163   155   138 1
  164   156   143 1
  165   157   147 1
  166   158   151 1
  167   160   159 1
  168   161   160 1
  169   162   161 1
  170   163   161 1
  171   164   163 1
  172   165   159 1
  173   165   164 1
  174   166   165 1
  175   167   166 1
  176   168   167 1
  177   169   168 1
  178   170   169 1
  179   171   170 1
  180   172   171 1
  181   173   172 1
  182   174   153 1
  183   174   173 1
  184   175   159 1
  185   176   159 1
  186   177   164 1
  187   178   168 1
  188   179   172 1
  189   180   179 1
  190   181   179 1
  191   182   179 1
  192   183   178 1
  193   184   178 1
  194   185   178 1
  195   186   177 1
  196   187   177 1
  197   188   177 1
  198   189   176 1
  199   190   176 1
  200   191   176 1
  201   192   175 1
  202   193   175 1
  203   194   175 1
  204   195   160 1
  205   196   160 1
  206   197   158 1
  207   198   158 1
  208   199   158 1
  209   200   157 1
  210   201   157 1
  211   202   157 1
  212   203   156 1
  213   204   156 1
  214   205   156 1
  215   206   155 1
  216   207   155 1
  217   208   155 1
  218   209   154 1
  219   210   154 1
  220   211   154 1
  221   212   141 1
  222   213   146 1
  223   214   145 1
  224   215   142 1
  225   216   142 1
  226   217   174 1
  227   218   173 1
  228   219   171 1
  229   220   170 1
  230   221   169 1
  231   222   140 1
  232   223   167 1
  233   224   166 1
  234   225   165 1
  235   226   163 1
  236   227   161 1
  237   228   139 1
  238   229   139 1
  239   230   153 1
  240   231   152 1
  241   232   150 1
  242   233   149 1
  243   234   148 1
  244   235   162 1
  245   65    153 1
  246   65    174 1
@<TRIPOS>SUBSTRUCTURE
      1 CLA               1 ****               0 ****  **** 
      2 LUT             138 ****               0 ****  **** 
