@<TRIPOS>MOLECULE
Cpptraj generated mol2 file.
  235   246     2     0     0
SMALL
USER_CHARGES


@<TRIPOS>ATOM
      1 CAA        78.0600   59.2304   33.8946 a2         1 CLA     -0.055900
      2 CAB        77.4766   62.6004   42.9230 c8         1 CLA     -0.148500
      3 CAC        71.0664   57.8592   42.1930 a2         1 CLA     -0.012600
      4 CAD        74.0474   56.3150   34.6649 ck         1 CLA      0.398800
      5 NA         76.9953   59.1788   37.3120 ns         1 CLA     -0.225500
      6 CBA        79.2887   59.0515   33.0264 a2         1 CLA     -0.135000
      7 CBB        78.6399   62.7531   43.6036 c0         1 CLA     -0.395200
      8 CBC        70.9900   56.3631   41.8074 a3         1 CLA     -0.037700
      9 CBD        75.4598   56.9268   34.4530 a1         1 CLA     -0.053900
     10 NB         76.6179   60.5060   39.9742 nm         1 CLA     -0.295700
     11 OBD        73.4286   55.5552   33.9226 o2         1 CLA     -0.494600
     12 CGA        79.7288   57.5551   32.6562 c4         1 CLA      0.827000
     13 CGD        76.4624   55.8873   34.0687 c4         1 CLA      0.655300
     14 ND         74.3161   58.0835   37.7755 nm         1 CLA     -0.291600
     15 CED        77.2245   53.6346   34.6182 a3         1 CLA      0.005400
     16 CHA        75.7189   57.7551   35.7411 cs         1 CLA     -0.123800
     17 CHB        78.6163   60.3935   38.5465 aa         1 CLA     -0.291900
     18 CHC        75.1275   60.9673   41.8255 aa         1 CLA     -0.090400
     19 CHD        72.3702   57.8412   39.1977 aa         1 CLA     -0.052000
     20 CMA        80.4582   58.7615   36.4801 a3         1 CLA     -0.230700
     21 CMB        79.8780   62.1544   40.7565 a3         1 CLA     -0.180800
     22 CMC        72.6892   60.1575   43.6503 a3         1 CLA     -0.134000
     23 CMD        71.3314   56.0657   36.8261 a3         1 CLA     -0.141100
     24 C1         80.6907   55.4717   33.3175 a2         1 CLA      0.023000
     25 C1A        76.8711   58.5638   36.0907 ac         1 CLA     -0.015100
     26 C1B        77.9368   60.8102   39.7127 cr         1 CLA      0.054700
     27 C1C        74.0333   60.0659   41.4522 cn         1 CLA     -0.005600
     28 C1D        73.0379   57.5997   38.0324 ap         1 CLA     -0.047300
     29 O1A        79.5720   57.0620   31.5485 o2         1 CLA     -0.610800
     30 O1D        77.0948   55.9638   33.0040 o2         1 CLA     -0.558200
     31 C2         81.1367   55.0261   34.6922 c8         1 CLA     -0.325100
     32 C2A        78.1423   58.5921   35.2964 a1         1 CLA      0.098600
     33 C2B        78.4866   61.6959   40.7335 cb         1 CLA      0.088500
     34 C2C        72.9243   59.6316   42.3080 cb         1 CLA      0.053700
     35 C2D        72.5953   56.7272   36.9638 cb         1 CLA      0.058900
     36 O2A        80.4096   56.9077   33.7012 o1         1 CLA     -0.437200
     37 O2D        76.6719   54.9257   35.0392 o1         1 CLA     -0.357600
     38 C3         82.0883   54.1339   34.8723 c5         1 CLA      0.031200
     39 C3A        79.0657   59.4127   36.2285 a1         1 CLA      0.166800
     40 C3B        77.5012   61.8275   41.6969 cb         1 CLA      0.035000
     41 C3C        72.2082   58.6737   41.6731 cb         1 CLA     -0.089900
     42 C3D        73.6236   56.8121   35.9941 cb         1 CLA     -0.035900
     43 C4         81.8016   52.6415   34.9047 a3         1 CLA     -0.053300
     44 C4A        78.1794   59.7139   37.4600 ac         1 CLA      0.001800
     45 C4B        76.3106   61.1330   41.1736 cn         1 CLA     -0.020900
     46 C4C        72.7118   58.6569   40.2933 cr         1 CLA     -0.044400
     47 C4D        74.6064   57.6075   36.5711 c6         1 CLA     -0.046000
     48 C5         83.5759   54.5003   34.7938 a2         1 CLA     -0.070400
     49 C6         84.0472   55.8713   35.1907 a2         1 CLA      0.043900
     50 C7         83.9167   56.0631   36.6634 a2         1 CLA     -0.150000
     51 C8         83.9346   57.5415   37.1708 a1         1 CLA      0.064200
     52 C9         85.1667   58.3636   36.6861 a3         1 CLA     -0.259300
     53 C10        83.7951   57.5827   38.7336 a2         1 CLA     -0.071900
     54 C11        82.3818   57.0865   39.4027 a2         1 CLA      0.014500
     55 C12        82.4870   57.1400   40.9454 a2         1 CLA     -0.112100
     56 C13        81.2924   56.7690   41.9210 a1         1 CLA      0.089200
     57 C14        80.1350   57.7531   41.5118 a3         1 CLA     -0.239100
     58 C15        81.6517   56.8488   43.4275 a2         1 CLA     -0.102200
     59 C16        82.2816   58.1719   43.9969 a2         1 CLA      0.023900
     60 C17        82.6308   58.0758   45.5261 a2         1 CLA     -0.105700
     61 C18        83.3225   59.3889   46.0998 a1         1 CLA      0.206800
     62 C19        82.3519   60.6426   46.2138 a3         1 CLA     -0.280100
     63 C20        84.0924   59.2624   47.4272 a3         1 CLA     -0.280100
     64 NC         73.9114   59.3953   40.2377 nx         1 CLA     -0.309200
     65 MG         75.4528   59.3399   38.8343 mg         1 CLA      0.895000
     66 HMD3       70.5200   56.7729   36.9192 dc         1 CLA      0.064300
     67 HMD2       71.3891   55.5451   35.8798 dc         1 CLA      0.064300
     68 HMD1       71.1499   55.2420   37.5397 dc         1 CLA      0.064300
     69 HMC3       72.3737   61.2053   43.4865 dc         1 CLA      0.052100
     70 HMC2       71.7892   59.7501   44.1355 dc         1 CLA      0.052100
     71 HMC1       73.5231   60.0949   44.3496 dc         1 CLA      0.052100
     72 HMB3       79.9915   63.0599   41.3114 dc         1 CLA      0.063600
     73 HMB2       80.6507   61.4115   41.0130 dc         1 CLA      0.063600
     74 HMB1       80.0954   62.4707   39.7559 dc         1 CLA      0.063600
     75 HMA3       80.9451   59.5817   37.0174 dc         1 CLA      0.058300
     76 HMA2       80.3363   57.8194   37.0528 dc         1 CLA      0.058300
     77 HMA1       81.0345   58.6342   35.5685 dc         1 CLA      0.058300
     78 HED3       76.5097   52.8361   34.3550 dc         1 CLA      0.079300
     79 HED2       77.9078   53.7410   33.8438 dc         1 CLA      0.079300
     80 HED1       77.9141   53.2937   35.3298 dc         1 CLA      0.079300
     81 HBC3       70.6576   56.1905   40.7623 dc         1 CLA      0.016300
     82 HBC2       71.9864   55.8414   42.0099 dc         1 CLA      0.016300
     83 HBC1       70.2355   55.9810   42.4578 dc         1 CLA      0.016300
     84 HBB2       78.7953   63.4603   44.4175 da         1 CLA      0.183000
     85 HBB1       79.5746   62.2457   43.2572 da         1 CLA      0.183000
     86 HBA2       79.2002   59.5724   32.0907 dc         1 CLA      0.029400
     87 HBA1       80.1441   59.5811   33.4133 dc         1 CLA      0.029400
     88 HAC2       71.1446   57.8709   43.2806 dc         1 CLA      0.029300
     89 HAC1       70.1386   58.2700   41.7724 dc         1 CLA      0.029300
     90 HAA2       77.1346   58.9125   33.4546 dc         1 CLA      0.028700
     91 HAA1       77.7166   60.2702   33.9870 dc         1 CLA      0.028700
     92 H203       84.6450   60.1269   47.6634 dc         1 CLA      0.065600
     93 H202       83.2677   59.0821   48.1039 dc         1 CLA      0.065600
     94 H201       84.6141   58.3300   47.3297 dc         1 CLA      0.065600
     95 H193       81.9397   61.0028   45.3088 dc         1 CLA      0.065600
     96 H192       81.4228   60.3261   46.7188 dc         1 CLA      0.065600
     97 H191       82.8969   61.3998   46.8168 dc         1 CLA      0.065600
     98 H172       81.6938   57.9189   46.1624 dc         1 CLA      0.027600
     99 H171       83.3899   57.2415   45.4806 dc         1 CLA      0.027600
    100 H162       83.1436   58.2966   43.3971 dc         1 CLA      0.002900
    101 H161       81.5782   58.9534   43.7711 dc         1 CLA      0.002900
    102 H152       80.7448   56.7164   44.0523 dc         1 CLA      0.029100
    103 H151       82.2302   55.9515   43.7695 dc         1 CLA      0.029100
    104 H143       79.9101   57.7017   40.4831 dc         1 CLA      0.063600
    105 H142       79.2889   57.7609   42.1514 dc         1 CLA      0.063600
    106 H141       80.5800   58.7617   41.6673 dc         1 CLA      0.063600
    107 H122       83.3079   56.4752   41.2024 dc         1 CLA      0.032500
    108 H121       82.8127   58.1094   41.2140 dc         1 CLA      0.032500
    109 H112       81.5251   57.6895   39.1526 dc         1 CLA      0.006600
    110 H111       82.2194   56.0326   39.1350 dc         1 CLA      0.006600
    111 H102       84.6308   57.1288   39.2744 dc         1 CLA      0.024100
    112 H101       83.7693   58.6269   39.0673 dc         1 CLA      0.024100
    113 HHD        71.3781   57.3796   39.3774 da         1 CLA      0.174300
    114 HHC        75.0112   61.5058   42.7718 da         1 CLA      0.136800
    115 HHB        79.6659   60.7113   38.5508 da         1 CLA      0.138300
    116 HBD        75.4763   57.6012   33.5989 dc         1 CLA      0.107700
    117 HAB        76.4813   63.0939   43.2762 da         1 CLA      0.155200
    118 H93        84.8638   59.0019   35.8820 dc         1 CLA      0.069500
    119 H92        85.5734   58.9627   37.4897 dc         1 CLA      0.069500
    120 H91        85.9415   57.7078   36.2879 dc         1 CLA      0.069500
    121 H8         83.0386   58.0173   36.8356 dc         1 CLA      0.029300
    122 H72        82.9192   55.6725   36.8636 dc         1 CLA      0.044400
    123 H71        84.6176   55.4246   37.2810 dc         1 CLA      0.044400
    124 H62        85.0849   56.0611   34.9352 dc         1 CLA      0.015600
    125 H61        83.3683   56.5320   34.7516 dc         1 CLA      0.015600
    126 H52        84.1707   53.7329   35.2582 dc         1 CLA      0.033200
    127 H51        83.5318   54.3394   33.7766 dc         1 CLA      0.033200
    128 H43        80.7515   52.4754   35.1275 dc         1 CLA      0.037000
    129 H42        82.2171   52.0912   34.1028 dc         1 CLA      0.037000
    130 H41        82.4425   52.1850   35.6466 dc         1 CLA      0.037000
    131 H3A        79.2915   60.3491   35.7602 dc         1 CLA      0.041100
    132 H2A        78.5777   57.5470   35.1452 dc         1 CLA      0.083100
    133 H2         80.8613   55.4851   35.6130 da         1 CLA      0.180900
    134 H18        84.0421   59.6626   45.3082 dc         1 CLA     -0.003900
    135 H13        81.0621   55.7489   41.6651 dc         1 CLA      0.019700
    136 H12        79.7940   54.9043   32.9667 dc         1 CLA      0.120400
    137 H11        81.4583   55.5966   32.5723 dc         1 CLA      0.120400
    138 C1         68.0990   61.0809   49.7761 Z1         2 LUT      0.509236
    139 C2         67.8089   61.7830   51.1592 Z2         2 LUT     -0.434695
    140 C3         66.3288   62.1946   51.2945 Z3         2 LUT      0.437453
    141 O3         66.3249   62.8542   52.5453 S1         2 LUT     -0.547129
    142 C4         66.1351   63.2144   50.1938 Z4         2 LUT     -0.468603
    143 C5         66.7872   63.0271   48.9093 Z5         2 LUT      0.279246
    144 C6         67.7214   62.0385   48.6379 Z6         2 LUT     -0.305473
    145 C7         68.3772   61.7864   47.2879 Z7         2 LUT      0.069402
    146 C8         69.1397   62.6183   46.5992 Z8         2 LUT     -0.191631
    147 C9         69.6740   62.4215   45.2561 Z9         2 LUT      0.196698
    148 C10        70.5438   63.3891   44.7734 Y1         2 LUT     -0.208611
    149 C11        71.1718   63.3877   43.4753 Y2         2 LUT      0.030784
    150 C12        72.3242   64.0386   43.1259 Y3         2 LUT     -0.220316
    151 C13        73.0556   63.8789   41.9016 Y4         2 LUT      0.215937
    152 C14        74.2760   64.5195   41.9187 Y5         2 LUT     -0.185793
    153 C15        75.3377   64.4818   40.9553 Y6         2 LUT     -0.057835
    154 C16        67.5929   59.6277   49.7875 Y7         2 LUT     -0.405615
    155 C17        69.5835   60.7891   49.8084 Y7         2 LUT     -0.405615
    156 C18        66.3450   64.0802   47.9399 Y9         2 LUT     -0.369639
    157 C19        69.3947   61.1166   44.5344 W1         2 LUT     -0.333362
    158 C20        72.5554   63.0665   40.7045 W2         2 LUT     -0.323439
    159 C21        87.0180   65.7398   35.1160 Z1         2 LUT      0.406104
    160 C22        87.7531   65.4086   33.7700 Z2         2 LUT     -0.404965
    161 C23        87.8284   66.5095   32.7373 Z3         2 LUT      0.391255
    162 O23        88.5159   65.9859   31.5542 S1         2 LUT     -0.528210
    163 C24        86.4364   67.1651   32.5553 W6         2 LUT     -0.258361
    164 C25        85.5385   67.1622   33.4779 Z5         2 LUT      0.133546
    165 C26        85.5566   66.2791   34.7492 W8         2 LUT     -0.147008
    166 C27        84.8468   66.9895   35.8878 Z7         2 LUT      0.023843
    167 C28        83.6971   66.4195   36.5010 Z8         2 LUT     -0.216987
    168 C29        82.9712   66.7210   37.7236 Z9         2 LUT      0.206524
    169 C30        81.8123   66.0513   37.9858 Y1         2 LUT     -0.215556
    170 C31        80.9183   66.1742   39.0811 Y2         2 LUT      0.025142
    171 C32        79.7816   65.5046   39.2630 Y3         2 LUT     -0.212209
    172 C33        78.8768   65.6049   40.3173 Y4         2 LUT      0.240937
    173 C34        77.6088   65.0836   40.1848 Y5         2 LUT     -0.218862
    174 C35        76.4555   65.2378   41.0756 Y6         2 LUT     -0.023547
    175 C36        87.8983   66.8231   35.8116 Y7         2 LUT     -0.393485
    176 C37        87.0730   64.5125   36.0479 Y7         2 LUT     -0.393485
    177 C38        84.2283   67.8709   33.1964 Y9         2 LUT     -0.387526
    178 C39        83.4268   67.8938   38.6552 W1         2 LUT     -0.322618
    179 C40        79.3029   66.4559   41.5813 W2         2 LUT     -0.358472
    180 H403       78.6491   66.1856   42.3949 R7         2 LUT      0.097720
    181 H402       80.3255   66.2516   41.9452 R7         2 LUT      0.097720
    182 H401       79.1997   67.5041   41.4133 R7         2 LUT      0.097720
    183 H393       82.6913   68.6166   39.0673 R4         2 LUT      0.082505
    184 H392       83.9982   67.5137   39.5621 R4         2 LUT      0.082505
    185 H391       84.1448   68.5802   38.1804 R4         2 LUT      0.082505
    186 H383       84.2833   68.4583   32.3038 R1         2 LUT      0.104030
    187 H382       83.4874   67.1468   33.1657 R1         2 LUT      0.104030
    188 H381       83.9667   68.4865   34.0634 R1         2 LUT      0.104030
    189 H373       87.9993   63.9936   36.1940 T4         2 LUT      0.089537
    190 H372       86.8180   64.8204   37.0342 T4         2 LUT      0.089537
    191 H371       86.3676   63.7222   35.7564 T4         2 LUT      0.089537
    192 H363       88.9279   66.4442   35.9727 T4         2 LUT      0.089537
    193 H362       87.9063   67.8329   35.4005 T4         2 LUT      0.089537
    194 H361       87.5537   66.9513   36.8825 T4         2 LUT      0.089537
    195 H222       88.7307   65.0461   34.0188 U2         2 LUT      0.127376
    196 H221       87.3418   64.5492   33.2867 U2         2 LUT      0.127376
    197 H203       73.3419   62.5947   40.1461 R7         2 LUT      0.087068
    198 H202       71.8968   62.2348   40.8853 R7         2 LUT      0.087068
    199 H201       72.0028   63.7468   40.0891 R7         2 LUT      0.087068
    200 H193       69.4780   60.3090   45.2237 R4         2 LUT      0.089716
    201 H192       68.3916   61.0533   44.1050 R4         2 LUT      0.089716
    202 H191       69.9856   60.8839   43.6599 R4         2 LUT      0.089716
    203 H183       67.0307   64.7947   47.6135 R1         2 LUT      0.094572
    204 H182       66.0642   63.6742   46.9564 R1         2 LUT      0.094572
    205 H181       65.4132   64.6593   48.2571 R1         2 LUT      0.094572
    206 H173       69.9245   60.0490   50.6003 T4         2 LUT      0.093752
    207 H172       69.9546   60.3905   48.8855 T4         2 LUT      0.093752
    208 H171       70.1088   61.7757   49.9852 T4         2 LUT      0.093752
    209 H163       67.7550   59.0134   50.6823 T4         2 LUT      0.093752
    210 H162       66.4847   59.6340   49.6800 T4         2 LUT      0.093752
    211 H161       68.0474   59.0682   49.0008 T4         2 LUT      0.093752
    212 HO3        66.2072   62.2202   53.2408 Q1         2 LUT      0.300121
    213 H8         69.4746   63.3861   47.1329 U7         2 LUT      0.080784
    214 H7         68.3829   60.7366   46.9396 U6         2 LUT      0.042190
    215 H42        65.0687   63.2328   49.9701 U5         2 LUT      0.145166
    216 H41        66.3967   64.1782   50.4619 U5         2 LUT      0.145166
    217 H35        76.5621   65.9710   41.9086 T3         2 LUT      0.077919
    218 H34        77.4296   64.4824   39.3283 T2         2 LUT      0.073626
    219 H32        79.4688   64.8842   38.3392 T1         2 LUT      0.092510
    220 H31        81.2582   66.8599   39.7794 U9         2 LUT      0.070048
    221 H30        81.5474   65.1912   37.3021 U8         2 LUT      0.085442
    222 H3         65.7439   61.3622   51.0193 U3         2 LUT     -0.031596
    223 H28        83.1050   65.6039   35.9798 U7         2 LUT      0.084728
    224 H27        85.3479   67.7968   36.3691 U6         2 LUT      0.087291
    225 H26        85.0238   65.3153   34.4415 Q6         2 LUT      0.075325
    226 H24        86.3300   67.8611   31.6433 Q5         2 LUT      0.094482
    227 H23        88.5770   67.1923   33.1388 U3         2 LUT     -0.024869
    228 H22        68.2537   61.3059   52.0279 U2         2 LUT      0.127376
    229 H21        68.3670   62.7791   51.0866 U2         2 LUT      0.127376
    230 H15        75.2866   63.7741   40.1030 T3         2 LUT      0.093200
    231 H14        74.6212   65.0416   42.8614 T2         2 LUT      0.068865
    232 H12        72.8572   64.6231   43.9248 T1         2 LUT      0.095507
    233 H11        70.6925   62.7606   42.7385 U9         2 LUT      0.068930
    234 H10        70.7162   64.2217   45.4876 U8         2 LUT      0.083911
    235 H1         87.7641   65.7511   30.9682 Q1         2 LUT      0.297311
@<TRIPOS>BOND
    1     6     1 1
    2     7     2 1
    3     8     3 1
    4     9     4 1
    5    11     4 1
    6    12     6 1
    7    13     9 1
    8    16     9 1
    9    25     5 1
   10    25    16 1
   11    26    10 1
   12    26    17 1
   13    27    18 1
   14    28    14 1
   15    28    19 1
   16    29    12 1
   17    30    13 1
   18    31    24 1
   19    32     1 1
   20    32    25 1
   21    33    21 1
   22    33    26 1
   23    34    22 1
   24    34    27 1
   25    35    23 1
   26    35    28 1
   27    36    12 1
   28    36    24 1
   29    37    13 1
   30    37    15 1
   31    38    31 1
   32    39    20 1
   33    39    32 1
   34    40     2 1
   35    40    33 1
   36    41     3 1
   37    41    34 1
   38    42     4 1
   39    42    35 1
   40    43    38 1
   41    44     5 1
   42    44    17 1
   43    44    39 1
   44    45    10 1
   45    45    18 1
   46    45    40 1
   47    46    19 1
   48    46    41 1
   49    47    14 1
   50    47    16 1
   51    47    42 1
   52    48    38 1
   53    49    48 1
   54    50    49 1
   55    51    50 1
   56    52    51 1
   57    53    51 1
   58    54    53 1
   59    55    54 1
   60    56    55 1
   61    57    56 1
   62    58    56 1
   63    59    58 1
   64    60    59 1
   65    61    60 1
   66    62    61 1
   67    63    61 1
   68    64    27 1
   69    64    46 1
   70    65     5 1
   71    65    10 1
   72    65    64 1
   73    65    14 1
   74    66    23 1
   75    67    23 1
   76    68    23 1
   77    69    22 1
   78    70    22 1
   79    71    22 1
   80    72    21 1
   81    73    21 1
   82    74    21 1
   83    75    20 1
   84    76    20 1
   85    77    20 1
   86    78    15 1
   87    79    15 1
   88    80    15 1
   89    81     8 1
   90    82     8 1
   91    83     8 1
   92    84     7 1
   93    85     7 1
   94    86     6 1
   95    87     6 1
   96    88     3 1
   97    89     3 1
   98    90     1 1
   99    91     1 1
  100    92    63 1
  101    93    63 1
  102    94    63 1
  103    95    62 1
  104    96    62 1
  105    97    62 1
  106    98    60 1
  107    99    60 1
  108   100    59 1
  109   101    59 1
  110   102    58 1
  111   103    58 1
  112   104    57 1
  113   105    57 1
  114   106    57 1
  115   107    55 1
  116   108    55 1
  117   109    54 1
  118   110    54 1
  119   111    53 1
  120   112    53 1
  121   113    19 1
  122   114    18 1
  123   115    17 1
  124   116     9 1
  125   117     2 1
  126   118    52 1
  127   119    52 1
  128   120    52 1
  129   121    51 1
  130   122    50 1
  131   123    50 1
  132   124    49 1
  133   125    49 1
  134   126    48 1
  135   127    48 1
  136   128    43 1
  137   129    43 1
  138   130    43 1
  139   131    39 1
  140   132    32 1
  141   133    31 1
  142   134    61 1
  143   135    56 1
  144   136    24 1
  145   137    24 1
  146   139   138 1
  147   140   139 1
  148   141   140 1
  149   142   140 1
  150   143   142 1
  151   144   138 1
  152   144   143 1
  153   145   144 1
  154   146   145 1
  155   147   146 1
  156   148   147 1
  157   149   148 1
  158   150   149 1
  159   151   150 1
  160   152   151 1
  161   153   152 1
  162   154   138 1
  163   155   138 1
  164   156   143 1
  165   157   147 1
  166   158   151 1
  167   160   159 1
  168   161   160 1
  169   162   161 1
  170   163   161 1
  171   164   163 1
  172   165   159 1
  173   165   164 1
  174   166   165 1
  175   167   166 1
  176   168   167 1
  177   169   168 1
  178   170   169 1
  179   171   170 1
  180   172   171 1
  181   173   172 1
  182   174   153 1
  183   174   173 1
  184   175   159 1
  185   176   159 1
  186   177   164 1
  187   178   168 1
  188   179   172 1
  189   180   179 1
  190   181   179 1
  191   182   179 1
  192   183   178 1
  193   184   178 1
  194   185   178 1
  195   186   177 1
  196   187   177 1
  197   188   177 1
  198   189   176 1
  199   190   176 1
  200   191   176 1
  201   192   175 1
  202   193   175 1
  203   194   175 1
  204   195   160 1
  205   196   160 1
  206   197   158 1
  207   198   158 1
  208   199   158 1
  209   200   157 1
  210   201   157 1
  211   202   157 1
  212   203   156 1
  213   204   156 1
  214   205   156 1
  215   206   155 1
  216   207   155 1
  217   208   155 1
  218   209   154 1
  219   210   154 1
  220   211   154 1
  221   212   141 1
  222   213   146 1
  223   214   145 1
  224   215   142 1
  225   216   142 1
  226   217   174 1
  227   218   173 1
  228   219   171 1
  229   220   170 1
  230   221   169 1
  231   222   140 1
  232   223   167 1
  233   224   166 1
  234   225   165 1
  235   226   163 1
  236   227   161 1
  237   228   139 1
  238   229   139 1
  239   230   153 1
  240   231   152 1
  241   232   150 1
  242   233   149 1
  243   234   148 1
  244   235   162 1
  245   65    153 1
  246   65    174 1
@<TRIPOS>SUBSTRUCTURE
      1 CLA               1 ****               0 ****  **** 
      2 LUT             138 ****               0 ****  **** 
