@<TRIPOS>MOLECULE
Cpptraj generated mol2 file.
  235   246     2     0     0
SMALL
USER_CHARGES


@<TRIPOS>ATOM
      1 CAA        80.1503   58.2111   34.9792 a2         1 CLA     -0.055900
      2 CAB        80.1739   62.3666   43.8373 c8         1 CLA     -0.148500
      3 CAC        73.2215   58.5315   43.7647 a2         1 CLA     -0.012600
      4 CAD        75.9223   55.7883   36.2359 ck         1 CLA      0.398800
      5 NA         79.2101   58.7546   38.4205 ns         1 CLA     -0.225500
      6 CBA        81.2855   57.8116   34.0944 a2         1 CLA     -0.135000
      7 CBB        81.3738   62.4649   44.5140 c0         1 CLA     -0.395200
      8 CBC        73.1665   57.0364   44.1016 a3         1 CLA     -0.037700
      9 CBD        77.3425   56.3650   35.8717 a1         1 CLA     -0.053900
     10 NB         79.1081   60.2566   41.0456 nm         1 CLA     -0.295700
     11 OBD        75.3651   54.9287   35.5543 o2         1 CLA     -0.494600
     12 CGA        81.5822   56.3307   33.9621 c4         1 CLA      0.827000
     13 CGD        78.3199   55.1420   35.6678 c4         1 CLA      0.655300
     14 ND         76.3882   57.7026   39.1896 nm         1 CLA     -0.291600
     15 CED        78.9299   52.9621   36.7348 a3         1 CLA      0.005400
     16 CHA        77.7468   57.3079   36.9980 cs         1 CLA     -0.123800
     17 CHB        81.0064   60.1560   39.4187 aa         1 CLA     -0.291900
     18 CHC        77.5941   60.9103   42.9059 aa         1 CLA     -0.090400
     19 CHD        74.5334   57.8227   40.7127 aa         1 CLA     -0.052000
     20 CMA        82.5275   57.9494   37.8484 a3         1 CLA     -0.230700
     21 CMB        82.4945   61.7686   41.4907 a3         1 CLA     -0.180800
     22 CMC        75.4580   60.2893   45.1350 a3         1 CLA     -0.134000
     23 CMD        73.2891   55.7058   38.5548 a3         1 CLA     -0.141100
     24 C1         82.3270   54.4008   35.2418 a2         1 CLA      0.023000
     25 C1A        78.9585   57.9857   37.2591 ac         1 CLA     -0.015100
     26 C1B        80.3865   60.5721   40.6287 cr         1 CLA      0.054700
     27 C1C        76.5551   60.0407   42.7218 cn         1 CLA     -0.005600
     28 C1D        75.0891   57.2892   39.5327 ap         1 CLA     -0.047300
     29 O1A        81.4477   55.5733   33.0059 o2         1 CLA     -0.610800
     30 O1D        79.0517   54.9787   34.6994 o2         1 CLA     -0.558200
     31 C2         82.8328   54.2759   36.6786 c8         1 CLA     -0.325100
     32 C2A        80.2833   57.7847   36.5489 a1         1 CLA      0.098600
     33 C2B        81.0104   61.3168   41.6387 cb         1 CLA      0.088500
     34 C2C        75.4880   59.8302   43.7025 cb         1 CLA      0.053700
     35 C2D        74.5907   56.4008   38.4952 cb         1 CLA      0.058900
     36 O2A        82.2081   55.8754   35.1145 o1         1 CLA     -0.437200
     37 O2D        78.2682   54.2838   36.7801 o1         1 CLA     -0.357600
     38 C3         83.9368   53.6527   37.1003 c5         1 CLA      0.031200
     39 C3A        81.2883   58.6978   37.2896 a1         1 CLA      0.166800
     40 C3B        80.0509   61.6303   42.5415 cb         1 CLA      0.035000
     41 C3C        74.5381   58.9661   43.0800 cb         1 CLA     -0.089900
     42 C3D        75.5806   56.3347   37.5118 cb         1 CLA     -0.035900
     43 C4         84.0785   52.1011   37.1654 a3         1 CLA     -0.053300
     44 C4A        80.4767   59.2699   38.4305 ac         1 CLA      0.001800
     45 C4B        78.8363   60.9406   42.1733 cn         1 CLA     -0.020900
     46 C4C        75.1069   58.6400   41.7301 cr         1 CLA     -0.044400
     47 C4D        76.6228   57.2019   37.9443 c6         1 CLA     -0.046000
     48 C5         85.2562   54.4058   37.3194 a2         1 CLA     -0.070400
     49 C6         85.2620   55.0883   38.6905 a2         1 CLA      0.043900
     50 C7         86.5885   55.8396   38.7223 a2         1 CLA     -0.150000
     51 C8         86.8559   56.6155   40.0612 a1         1 CLA      0.064200
     52 C9         86.1333   57.9995   40.0548 a3         1 CLA     -0.259300
     53 C10        88.3996   56.8484   40.2490 a2         1 CLA     -0.071900
     54 C11        88.8831   57.4679   41.5828 a2         1 CLA      0.014500
     55 C12        88.4035   56.6895   42.8496 a2         1 CLA     -0.112100
     56 C13        89.1190   56.9900   44.2081 a1         1 CLA      0.089200
     57 C14        89.0774   55.7983   45.2122 a3         1 CLA     -0.239100
     58 C15        88.3717   58.1656   44.8909 a2         1 CLA     -0.102200
     59 C16        89.3312   58.9213   45.8844 a2         1 CLA      0.023900
     60 C17        88.6807   60.0668   46.7186 a2         1 CLA     -0.105700
     61 C18        87.4501   59.7238   47.6623 a1         1 CLA      0.206800
     62 C19        87.7775   58.6006   48.7479 a3         1 CLA     -0.280100
     63 C20        86.8079   60.9615   48.2964 a3         1 CLA     -0.280100
     64 NC         76.3646   59.2503   41.6050 nx         1 CLA     -0.309200
     65 MG         77.7177   59.1367   40.0337 mg         1 CLA      0.895000
     66 HMD3       72.5586   56.4869   38.3478 dc         1 CLA      0.064300
     67 HMD2       73.2863   55.0311   37.7183 dc         1 CLA      0.064300
     68 HMD1       73.2461   55.1672   39.5107 dc         1 CLA      0.064300
     69 HMC3       75.3632   59.3686   45.7085 dc         1 CLA      0.052100
     70 HMC2       76.3793   60.7769   45.3874 dc         1 CLA      0.052100
     71 HMC1       74.6389   61.0112   45.3720 dc         1 CLA      0.052100
     72 HMB3       83.2103   60.9499   41.7571 dc         1 CLA      0.063600
     73 HMB2       82.7357   61.8912   40.4148 dc         1 CLA      0.063600
     74 HMB1       82.7772   62.7125   42.0525 dc         1 CLA      0.063600
     75 HMA3       83.2500   58.5425   38.4724 dc         1 CLA      0.058300
     76 HMA2       82.0108   57.1514   38.4972 dc         1 CLA      0.058300
     77 HMA1       83.0505   57.4627   37.0582 dc         1 CLA      0.058300
     78 HED3       78.3017   52.2128   37.2103 dc         1 CLA      0.079300
     79 HED2       79.1410   52.6223   35.7072 dc         1 CLA      0.079300
     80 HED1       79.9488   53.0440   37.1264 dc         1 CLA      0.079300
     81 HBC3       72.2745   56.7808   44.7019 dc         1 CLA      0.016300
     82 HBC2       72.8245   56.4360   43.2609 dc         1 CLA      0.016300
     83 HBC1       73.9786   56.6077   44.6909 dc         1 CLA      0.016300
     84 HBB2       81.2873   62.9960   45.5265 da         1 CLA      0.183000
     85 HBB1       82.3676   62.1357   44.2151 da         1 CLA      0.183000
     86 HBA2       81.1288   58.1690   33.0937 dc         1 CLA      0.029400
     87 HBA1       82.2686   58.2112   34.4335 dc         1 CLA      0.029400
     88 HAC2       73.0468   58.9982   44.7642 dc         1 CLA      0.029300
     89 HAC1       72.3518   58.8884   43.1704 dc         1 CLA      0.029300
     90 HAA2       79.2498   57.8457   34.4209 dc         1 CLA      0.028700
     91 HAA1       80.0883   59.2703   34.9300 dc         1 CLA      0.028700
     92 H203       87.5436   61.6395   48.7159 dc         1 CLA      0.065600
     93 H202       86.2095   61.4728   47.4704 dc         1 CLA      0.065600
     94 H201       86.2406   60.7141   49.2029 dc         1 CLA      0.065600
     95 H193       88.0697   57.7279   48.2172 dc         1 CLA      0.065600
     96 H192       88.5675   58.9495   49.4253 dc         1 CLA      0.065600
     97 H191       86.8763   58.2923   49.4006 dc         1 CLA      0.065600
     98 H172       89.3519   60.3212   47.4930 dc         1 CLA      0.027600
     99 H171       88.3002   60.9165   46.0753 dc         1 CLA      0.027600
    100 H162       89.6427   58.2421   46.6335 dc         1 CLA      0.002900
    101 H161       90.2159   59.2583   45.3522 dc         1 CLA      0.002900
    102 H152       88.1600   58.9511   44.1385 dc         1 CLA      0.029100
    103 H151       87.4218   57.8304   45.2813 dc         1 CLA      0.029100
    104 H143       88.0508   55.5550   45.5628 dc         1 CLA      0.063600
    105 H142       89.5617   54.9144   44.7663 dc         1 CLA      0.063600
    106 H141       89.6385   56.0308   46.1566 dc         1 CLA      0.063600
    107 H122       87.3334   56.8946   43.0404 dc         1 CLA      0.032500
    108 H121       88.4473   55.6409   42.5725 dc         1 CLA      0.032500
    109 H112       89.9514   57.6576   41.5775 dc         1 CLA      0.006600
    110 H111       88.4221   58.4145   41.5961 dc         1 CLA      0.006600
    111 H102       88.8900   55.9567   40.1068 dc         1 CLA      0.024100
    112 H101       88.6543   57.6437   39.4938 dc         1 CLA      0.024100
    113 HHD        73.5268   57.4812   40.9839 da         1 CLA      0.174300
    114 HHC        77.6169   61.5784   43.7551 da         1 CLA      0.136800
    115 HHB        81.9886   60.5222   39.1183 da         1 CLA      0.138300
    116 HBD        77.1781   56.9798   34.9880 dc         1 CLA      0.107700
    117 HAB        79.2851   62.7997   44.3648 da         1 CLA      0.155200
    118 H93        86.4944   58.6276   39.1666 dc         1 CLA      0.069500
    119 H92        85.0710   57.8366   39.8356 dc         1 CLA      0.069500
    120 H91        86.1965   58.4926   41.0824 dc         1 CLA      0.069500
    121 H8         86.5131   56.0424   40.9779 dc         1 CLA      0.029300
    122 H72        87.3937   55.1087   38.5167 dc         1 CLA      0.044400
    123 H71        86.7207   56.4238   37.7946 dc         1 CLA      0.044400
    124 H62        84.4881   55.8082   38.7856 dc         1 CLA      0.015600
    125 H61        85.1603   54.4806   39.5749 dc         1 CLA      0.015600
    126 H52        86.0777   53.6952   37.1559 dc         1 CLA      0.033200
    127 H51        85.4025   55.1432   36.4458 dc         1 CLA      0.033200
    128 H43        84.9167   51.8148   36.5271 dc         1 CLA      0.037000
    129 H42        84.4558   51.7583   38.1405 dc         1 CLA      0.037000
    130 H41        83.1423   51.6011   36.8669 dc         1 CLA      0.037000
    131 H3A        81.7163   59.5518   36.7331 dc         1 CLA      0.041100
    132 H2A        80.5059   56.7514   36.5427 dc         1 CLA      0.083100
    133 H2         82.1419   54.6612   37.3756 da         1 CLA      0.180900
    134 H18        86.7044   59.2485   46.9625 dc         1 CLA     -0.003900
    135 H13        90.1405   57.2360   43.9834 dc         1 CLA      0.019700
    136 H12        81.4179   53.8259   34.9931 dc         1 CLA      0.120400
    137 H11        83.1066   54.0279   34.5487 dc         1 CLA      0.120400
    138 C1         69.3329   61.1474   50.0898 Z1         2 LUT      0.509236
    139 C2         67.8887   61.0343   50.6510 Z2         2 LUT     -0.434695
    140 C3         67.2303   62.3851   50.9411 Z3         2 LUT      0.437453
    141 O3         67.5671   63.0173   52.1474 S1         2 LUT     -0.547129
    142 C4         67.3614   63.2884   49.7959 Z4         2 LUT     -0.468603
    143 C5         68.3889   63.0709   48.7430 Z5         2 LUT      0.279246
    144 C6         69.2359   62.0422   48.8347 Z6         2 LUT     -0.305473
    145 C7         69.8793   61.5898   47.6515 Z7         2 LUT      0.069402
    146 C8         71.0795   62.1165   47.1796 Z8         2 LUT     -0.191631
    147 C9         71.5332   61.8956   45.7823 Z9         2 LUT      0.196698
    148 C10        72.5523   62.6715   45.2067 Y1         2 LUT     -0.208611
    149 C11        73.1297   62.7061   43.8493 Y2         2 LUT      0.030784
    150 C12        74.2289   63.5221   43.6744 Y3         2 LUT     -0.220316
    151 C13        75.0822   63.5621   42.4744 Y4         2 LUT      0.215937
    152 C14        76.3011   64.2328   42.4600 Y5         2 LUT     -0.185793
    153 C15        77.4186   64.1790   41.5171 Y6         2 LUT     -0.057835
    154 C16        69.9752   59.7750   49.9140 Y7         2 LUT     -0.405615
    155 C17        70.2233   61.8056   51.1719 Y7         2 LUT     -0.405615
    156 C18        68.1906   63.9815   47.6050 Y9         2 LUT     -0.369639
    157 C19        70.8235   60.8299   44.9540 W1         2 LUT     -0.333362
    158 C20        74.6285   62.7614   41.2750 W2         2 LUT     -0.323439
    159 C21        89.2389   65.3465   36.0470 Z1         2 LUT      0.406104
    160 C22        89.8442   64.5739   34.8474 Z2         2 LUT     -0.404965
    161 C23        89.7750   65.3477   33.5253 Z3         2 LUT      0.391255
    162 O23        90.3653   64.5753   32.4439 S1         2 LUT     -0.528210
    163 C24        88.5704   66.2329   33.3870 W6         2 LUT     -0.258361
    164 C25        87.6424   66.4176   34.2697 Z5         2 LUT      0.133546
    165 C26        87.7915   65.7809   35.6554 W8         2 LUT     -0.147008
    166 C27        87.0514   66.5265   36.7729 Z7         2 LUT      0.023843
    167 C28        85.8465   66.1831   37.3410 Z8         2 LUT     -0.216987
    168 C29        85.2339   66.6620   38.5942 Z9         2 LUT      0.206524
    169 C30        83.9943   66.1408   38.7846 Y1         2 LUT     -0.215556
    170 C31        83.1651   66.2110   39.9051 Y2         2 LUT      0.025142
    171 C32        82.0706   65.4090   39.9558 Y3         2 LUT     -0.212209
    172 C33        81.0335   65.4035   40.9918 Y4         2 LUT      0.240937
    173 C34        79.8076   64.7993   40.7925 Y5         2 LUT     -0.218862
    174 C35        78.6518   64.7905   41.7555 Y6         2 LUT     -0.023547
    175 C36        90.2279   66.4891   36.4449 Y7         2 LUT     -0.393485
    176 C37        89.2398   64.2749   37.2343 Y7         2 LUT     -0.393485
    177 C38        86.3791   67.1235   33.9287 Y9         2 LUT     -0.387526
    178 C39        85.9807   67.5181   39.6155 W1         2 LUT     -0.322618
    179 C40        81.3762   66.1643   42.1796 W2         2 LUT     -0.358472
    180 H403       80.9811   67.1446   42.0505 R7         2 LUT      0.097720
    181 H402       80.8428   65.8365   43.0131 R7         2 LUT      0.097720
    182 H401       82.4140   66.1772   42.4592 R7         2 LUT      0.097720
    183 H393       86.3374   66.8774   40.3875 R4         2 LUT      0.082505
    184 H392       86.7964   68.0406   39.0902 R4         2 LUT      0.082505
    185 H391       85.3782   68.3334   40.0412 R4         2 LUT      0.082505
    186 H383       85.5109   66.4600   33.7531 R1         2 LUT      0.104030
    187 H382       86.0371   67.8211   34.7606 R1         2 LUT      0.104030
    188 H381       86.5300   67.7347   32.9099 R1         2 LUT      0.104030
    189 H373       90.2157   63.9511   37.6683 T4         2 LUT      0.089537
    190 H372       88.7903   64.6958   38.1291 T4         2 LUT      0.089537
    191 H371       88.7743   63.3227   37.0181 T4         2 LUT      0.089537
    192 H363       90.0510   66.8637   37.4444 T4         2 LUT      0.089537
    193 H362       91.2587   66.1616   36.4757 T4         2 LUT      0.089537
    194 H361       90.1131   67.2712   35.7460 T4         2 LUT      0.089537
    195 H222       90.8443   64.3035   35.0439 U2         2 LUT      0.127376
    196 H221       89.3737   63.5965   34.7847 U2         2 LUT      0.127376
    197 H203       75.2053   63.0420   40.4658 R7         2 LUT      0.087068
    198 H202       74.6799   61.6727   41.3883 R7         2 LUT      0.087068
    199 H201       73.6085   63.1415   41.0157 R7         2 LUT      0.087068
    200 H193       69.8319   61.1028   44.7368 R4         2 LUT      0.089716
    201 H192       71.3014   60.6842   44.0035 R4         2 LUT      0.089716
    202 H191       70.8684   59.8366   45.3915 R4         2 LUT      0.089716
    203 H183       68.7528   63.7000   46.7003 R1         2 LUT      0.094572
    204 H182       67.1058   63.9709   47.2427 R1         2 LUT      0.094572
    205 H181       68.3438   65.0017   47.8592 R1         2 LUT      0.094572
    206 H173       69.8168   62.8336   51.2189 T4         2 LUT      0.093752
    207 H172       70.0481   61.2434   52.1419 T4         2 LUT      0.093752
    208 H171       71.2580   61.9684   50.8986 T4         2 LUT      0.093752
    209 H163       71.0294   60.1037   49.6561 T4         2 LUT      0.093752
    210 H162       69.8788   59.2296   50.8648 T4         2 LUT      0.093752
    211 H161       69.4680   59.2350   49.1737 T4         2 LUT      0.093752
    212 HO3        67.4212   62.4318   52.9083 Q1         2 LUT      0.300121
    213 H8         71.6231   62.8333   47.7746 U7         2 LUT      0.080784
    214 H7         69.2789   61.0826   46.9577 U6         2 LUT      0.042190
    215 H42        66.2985   63.4324   49.4461 U5         2 LUT      0.145166
    216 H41        67.7636   64.2489   50.1863 U5         2 LUT      0.145166
    217 H35        78.7620   65.4692   42.6392 T3         2 LUT      0.077919
    218 H34        79.6965   64.3445   39.7798 T2         2 LUT      0.073626
    219 H32        81.8458   64.7005   39.1888 T1         2 LUT      0.092510
    220 H31        83.3494   66.8963   40.7294 U9         2 LUT      0.070048
    221 H30        83.6287   65.4786   37.9789 U8         2 LUT      0.085442
    222 H3         66.1249   62.2160   51.0518 U3         2 LUT     -0.031596
    223 H28        85.3383   65.4350   36.8033 U7         2 LUT      0.084728
    224 H27        87.4828   67.4145   37.0978 U6         2 LUT      0.087291
    225 H26        87.1913   64.8287   35.6647 Q6         2 LUT      0.075325
    226 H24        88.3724   66.5730   32.4129 Q5         2 LUT      0.094482
    227 H23        90.5599   66.1207   33.7787 U3         2 LUT     -0.024869
    228 H22        67.3158   60.4817   49.9469 U2         2 LUT      0.127376
    229 H21        68.0553   60.4183   51.5503 U2         2 LUT      0.127376
    230 H15        77.3096   63.5179   40.5816 T3         2 LUT      0.093200
    231 H14        76.5220   64.8047   43.3966 T2         2 LUT      0.068865
    232 H12        74.6732   64.1398   44.4871 T1         2 LUT      0.095507
    233 H11        72.8033   62.0669   42.9748 U9         2 LUT      0.068930
    234 H10        72.8386   63.5171   45.8633 U8         2 LUT      0.083911
    235 H1         89.7330   64.0873   31.9470 Q1         2 LUT      0.297311
@<TRIPOS>BOND
    1     6     1 1
    2     7     2 1
    3     8     3 1
    4     9     4 1
    5    11     4 1
    6    12     6 1
    7    13     9 1
    8    16     9 1
    9    25     5 1
   10    25    16 1
   11    26    10 1
   12    26    17 1
   13    27    18 1
   14    28    14 1
   15    28    19 1
   16    29    12 1
   17    30    13 1
   18    31    24 1
   19    32     1 1
   20    32    25 1
   21    33    21 1
   22    33    26 1
   23    34    22 1
   24    34    27 1
   25    35    23 1
   26    35    28 1
   27    36    12 1
   28    36    24 1
   29    37    13 1
   30    37    15 1
   31    38    31 1
   32    39    20 1
   33    39    32 1
   34    40     2 1
   35    40    33 1
   36    41     3 1
   37    41    34 1
   38    42     4 1
   39    42    35 1
   40    43    38 1
   41    44     5 1
   42    44    17 1
   43    44    39 1
   44    45    10 1
   45    45    18 1
   46    45    40 1
   47    46    19 1
   48    46    41 1
   49    47    14 1
   50    47    16 1
   51    47    42 1
   52    48    38 1
   53    49    48 1
   54    50    49 1
   55    51    50 1
   56    52    51 1
   57    53    51 1
   58    54    53 1
   59    55    54 1
   60    56    55 1
   61    57    56 1
   62    58    56 1
   63    59    58 1
   64    60    59 1
   65    61    60 1
   66    62    61 1
   67    63    61 1
   68    64    27 1
   69    64    46 1
   70    65     5 1
   71    65    10 1
   72    65    64 1
   73    65    14 1
   74    66    23 1
   75    67    23 1
   76    68    23 1
   77    69    22 1
   78    70    22 1
   79    71    22 1
   80    72    21 1
   81    73    21 1
   82    74    21 1
   83    75    20 1
   84    76    20 1
   85    77    20 1
   86    78    15 1
   87    79    15 1
   88    80    15 1
   89    81     8 1
   90    82     8 1
   91    83     8 1
   92    84     7 1
   93    85     7 1
   94    86     6 1
   95    87     6 1
   96    88     3 1
   97    89     3 1
   98    90     1 1
   99    91     1 1
  100    92    63 1
  101    93    63 1
  102    94    63 1
  103    95    62 1
  104    96    62 1
  105    97    62 1
  106    98    60 1
  107    99    60 1
  108   100    59 1
  109   101    59 1
  110   102    58 1
  111   103    58 1
  112   104    57 1
  113   105    57 1
  114   106    57 1
  115   107    55 1
  116   108    55 1
  117   109    54 1
  118   110    54 1
  119   111    53 1
  120   112    53 1
  121   113    19 1
  122   114    18 1
  123   115    17 1
  124   116     9 1
  125   117     2 1
  126   118    52 1
  127   119    52 1
  128   120    52 1
  129   121    51 1
  130   122    50 1
  131   123    50 1
  132   124    49 1
  133   125    49 1
  134   126    48 1
  135   127    48 1
  136   128    43 1
  137   129    43 1
  138   130    43 1
  139   131    39 1
  140   132    32 1
  141   133    31 1
  142   134    61 1
  143   135    56 1
  144   136    24 1
  145   137    24 1
  146   139   138 1
  147   140   139 1
  148   141   140 1
  149   142   140 1
  150   143   142 1
  151   144   138 1
  152   144   143 1
  153   145   144 1
  154   146   145 1
  155   147   146 1
  156   148   147 1
  157   149   148 1
  158   150   149 1
  159   151   150 1
  160   152   151 1
  161   153   152 1
  162   154   138 1
  163   155   138 1
  164   156   143 1
  165   157   147 1
  166   158   151 1
  167   160   159 1
  168   161   160 1
  169   162   161 1
  170   163   161 1
  171   164   163 1
  172   165   159 1
  173   165   164 1
  174   166   165 1
  175   167   166 1
  176   168   167 1
  177   169   168 1
  178   170   169 1
  179   171   170 1
  180   172   171 1
  181   173   172 1
  182   174   153 1
  183   174   173 1
  184   175   159 1
  185   176   159 1
  186   177   164 1
  187   178   168 1
  188   179   172 1
  189   180   179 1
  190   181   179 1
  191   182   179 1
  192   183   178 1
  193   184   178 1
  194   185   178 1
  195   186   177 1
  196   187   177 1
  197   188   177 1
  198   189   176 1
  199   190   176 1
  200   191   176 1
  201   192   175 1
  202   193   175 1
  203   194   175 1
  204   195   160 1
  205   196   160 1
  206   197   158 1
  207   198   158 1
  208   199   158 1
  209   200   157 1
  210   201   157 1
  211   202   157 1
  212   203   156 1
  213   204   156 1
  214   205   156 1
  215   206   155 1
  216   207   155 1
  217   208   155 1
  218   209   154 1
  219   210   154 1
  220   211   154 1
  221   212   141 1
  222   213   146 1
  223   214   145 1
  224   215   142 1
  225   216   142 1
  226   217   174 1
  227   218   173 1
  228   219   171 1
  229   220   170 1
  230   221   169 1
  231   222   140 1
  232   223   167 1
  233   224   166 1
  234   225   165 1
  235   226   163 1
  236   227   161 1
  237   228   139 1
  238   229   139 1
  239   230   153 1
  240   231   152 1
  241   232   150 1
  242   233   149 1
  243   234   148 1
  244   235   162 1
  245   65    153 1
  246   65    174 1
@<TRIPOS>SUBSTRUCTURE
      1 CLA               1 ****               0 ****  **** 
      2 LUT             138 ****               0 ****  **** 
