@<TRIPOS>MOLECULE
Cpptraj generated mol2 file.
  235   246     2     0     0
SMALL
USER_CHARGES


@<TRIPOS>ATOM
      1 CAA        77.8098   59.2010   33.4573 a2         1 CLA     -0.055900
      2 CAB        77.9912   62.1636   42.7164 c8         1 CLA     -0.148500
      3 CAC        71.3875   57.7591   42.2955 a2         1 CLA     -0.012600
      4 CAD        73.9177   56.1006   34.6598 ck         1 CLA      0.398800
      5 NA         77.0036   59.0918   36.8960 ns         1 CLA     -0.225500
      6 CBA        79.0577   59.2139   32.5876 a2         1 CLA     -0.135000
      7 CBB        79.0618   62.3044   43.5561 c0         1 CLA     -0.395200
      8 CBC        71.6597   56.2644   42.1170 a3         1 CLA     -0.037700
      9 CBD        75.3471   56.8208   34.2458 a1         1 CLA     -0.053900
     10 NB         76.8886   60.5025   39.5073 nm         1 CLA     -0.295700
     11 OBD        73.3369   55.3679   33.8503 o2         1 CLA     -0.494600
     12 CGA        79.6434   57.8418   32.0656 c4         1 CLA      0.827000
     13 CGD        76.3486   55.8152   33.8219 c4         1 CLA      0.655300
     14 ND         74.2281   58.0492   37.5557 nm         1 CLA     -0.291600
     15 CED        77.3372   53.5978   34.1873 a3         1 CLA      0.005400
     16 CHA        75.6501   57.6366   35.4693 cs         1 CLA     -0.123800
     17 CHB        78.7546   60.3422   37.9886 aa         1 CLA     -0.291900
     18 CHC        75.5957   60.5358   41.5956 aa         1 CLA     -0.090400
     19 CHD        72.5145   57.6415   39.3132 aa         1 CLA     -0.052000
     20 CMA        80.3617   58.4157   36.0460 a3         1 CLA     -0.230700
     21 CMB        80.2081   62.1332   40.2275 a3         1 CLA     -0.180800
     22 CMC        73.4094   59.7819   43.7739 a3         1 CLA     -0.134000
     23 CMD        71.3012   55.7145   37.0831 a3         1 CLA     -0.141100
     24 C1         80.3389   55.5966   32.5893 a2         1 CLA      0.023000
     25 C1A        76.8309   58.3637   35.7344 ac         1 CLA     -0.015100
     26 C1B        78.2018   60.7982   39.1612 cr         1 CLA      0.054700
     27 C1C        74.4235   59.8206   41.3195 cn         1 CLA     -0.005600
     28 C1D        73.0229   57.5179   37.9304 ap         1 CLA     -0.047300
     29 O1A        79.7115   57.5581   30.8908 o2         1 CLA     -0.610800
     30 O1D        76.9907   55.9364   32.7967 o2         1 CLA     -0.558200
     31 C2         81.1428   55.1147   33.7647 c8         1 CLA     -0.325100
     32 C2A        78.0119   58.4088   34.7978 a1         1 CLA      0.098600
     33 C2B        78.8297   61.5316   40.2720 cb         1 CLA      0.088500
     34 C2C        73.3785   59.4645   42.2706 cb         1 CLA      0.053700
     35 C2D        72.5585   56.5595   36.9841 cb         1 CLA      0.058900
     36 O2A        79.9361   56.9222   33.0534 o1         1 CLA     -0.437200
     37 O2D        76.3938   54.6554   34.6075 o1         1 CLA     -0.357600
     38 C3         81.8441   53.9399   33.8653 c5         1 CLA      0.031200
     39 C3A        79.0139   59.2102   35.7085 a1         1 CLA      0.166800
     40 C3B        77.8748   61.5778   41.3330 cb         1 CLA      0.035000
     41 C3C        72.5243   58.5663   41.6761 cb         1 CLA     -0.089900
     42 C3D        73.5410   56.5652   35.9470 cb         1 CLA     -0.035900
     43 C4         81.3016   52.7722   34.5704 a3         1 CLA     -0.053300
     44 C4A        78.2141   59.6155   36.9230 ac         1 CLA      0.001800
     45 C4B        76.7174   60.8323   40.8480 cn         1 CLA     -0.020900
     46 C4C        73.0531   58.4611   40.3055 cr         1 CLA     -0.044400
     47 C4D        74.5213   57.4811   36.3890 c6         1 CLA     -0.046000
     48 C5         83.2383   53.9110   33.3186 a2         1 CLA     -0.070400
     49 C6         84.2329   55.0018   33.8047 a2         1 CLA      0.043900
     50 C7         84.5394   54.9141   35.3207 a2         1 CLA     -0.150000
     51 C8         85.3744   56.0522   35.9045 a1         1 CLA      0.064200
     52 C9         86.9386   55.8583   35.5499 a3         1 CLA     -0.259300
     53 C10        85.2585   56.1411   37.4881 a2         1 CLA     -0.071900
     54 C11        84.0011   56.8312   38.0259 a2         1 CLA      0.014500
     55 C12        84.0319   57.0132   39.5449 a2         1 CLA     -0.112100
     56 C13        82.7267   57.0033   40.3691 a1         1 CLA      0.089200
     57 C14        81.7070   58.0460   39.7207 a3         1 CLA     -0.239100
     58 C15        82.9388   57.2592   41.8591 a2         1 CLA     -0.102200
     59 C16        83.2399   58.6840   42.3948 a2         1 CLA      0.023900
     60 C17        83.3529   58.6424   43.9615 a2         1 CLA     -0.105700
     61 C18        83.6812   60.0795   44.5975 a1         1 CLA      0.206800
     62 C19        82.4221   60.7880   45.0938 a3         1 CLA     -0.280100
     63 C20        84.7113   59.8049   45.7884 a3         1 CLA     -0.280100
     64 NC         74.1422   59.2251   40.1629 nx         1 CLA     -0.309200
     65 MG         75.4780   59.3692   38.4789 mg         1 CLA      0.895000
     66 HMD3       71.5659   55.0392   37.9268 dc         1 CLA      0.064300
     67 HMD2       70.5234   56.3514   37.3499 dc         1 CLA      0.064300
     68 HMD1       71.0464   55.1182   36.1997 dc         1 CLA      0.064300
     69 HMC3       74.3992   59.3807   44.0636 dc         1 CLA      0.052100
     70 HMC2       73.3657   60.8866   43.9264 dc         1 CLA      0.052100
     71 HMC1       72.7856   59.2592   44.4730 dc         1 CLA      0.052100
     72 HMB3       80.4744   62.7687   41.1421 dc         1 CLA      0.063600
     73 HMB2       80.8862   61.2847   40.3628 dc         1 CLA      0.063600
     74 HMB1       80.4423   62.6045   39.2134 dc         1 CLA      0.063600
     75 HMA3       81.0427   58.8813   36.7377 dc         1 CLA      0.058300
     76 HMA2       79.9505   57.5663   36.5508 dc         1 CLA      0.058300
     77 HMA1       80.9712   58.1213   35.1478 dc         1 CLA      0.058300
     78 HED3       77.1208   52.6069   34.4806 dc         1 CLA      0.079300
     79 HED2       77.3889   53.5343   33.0716 dc         1 CLA      0.079300
     80 HED1       78.3702   53.9355   34.4853 dc         1 CLA      0.079300
     81 HBC3       71.3550   55.6900   43.0118 dc         1 CLA      0.016300
     82 HBC2       71.1722   55.8017   41.2736 dc         1 CLA      0.016300
     83 HBC1       72.7890   56.2111   42.0958 dc         1 CLA      0.016300
     84 HBB2       79.0062   62.7649   44.5646 da         1 CLA      0.183000
     85 HBB1       80.0909   61.9792   43.3790 da         1 CLA      0.183000
     86 HBA2       78.8948   59.7644   31.6629 dc         1 CLA      0.029400
     87 HBA1       79.9459   59.6476   33.1452 dc         1 CLA      0.029400
     88 HAC2       71.2415   57.8960   43.3573 dc         1 CLA      0.029300
     89 HAC1       70.4284   57.9500   41.8597 dc         1 CLA      0.029300
     90 HAA2       77.1047   58.5009   32.9858 dc         1 CLA      0.028700
     91 HAA1       77.5550   60.2471   33.7215 dc         1 CLA      0.028700
     92 H203       85.7691   59.8316   45.3359 dc         1 CLA      0.065600
     93 H202       84.6918   60.7093   46.3255 dc         1 CLA      0.065600
     94 H201       84.4249   58.9419   46.4768 dc         1 CLA      0.065600
     95 H193       81.7026   60.7033   44.2350 dc         1 CLA      0.065600
     96 H192       81.9808   60.2164   45.9403 dc         1 CLA      0.065600
     97 H191       82.5296   61.7731   45.5169 dc         1 CLA      0.065600
     98 H172       82.5056   58.2571   44.4309 dc         1 CLA      0.027600
     99 H171       84.2549   58.0711   44.2708 dc         1 CLA      0.027600
    100 H162       84.0906   59.1515   41.8998 dc         1 CLA      0.002900
    101 H161       82.3558   59.2184   42.1627 dc         1 CLA      0.002900
    102 H152       82.0789   56.8526   42.2753 dc         1 CLA      0.029100
    103 H151       83.7002   56.5340   42.1984 dc         1 CLA      0.029100
    104 H143       80.9462   58.4539   40.3918 dc         1 CLA      0.063600
    105 H142       82.2308   58.9059   39.4530 dc         1 CLA      0.063600
    106 H141       81.1684   57.6629   38.8546 dc         1 CLA      0.063600
    107 H122       84.6266   56.2430   40.0975 dc         1 CLA      0.032500
    108 H121       84.5351   57.9831   39.7360 dc         1 CLA      0.032500
    109 H112       83.6527   57.7281   37.5226 dc         1 CLA      0.006600
    110 H111       83.2048   56.1102   37.7511 dc         1 CLA      0.006600
    111 H102       85.2621   55.1850   38.0009 dc         1 CLA      0.024100
    112 H101       86.0822   56.6323   37.9125 dc         1 CLA      0.024100
    113 HHD        71.6561   57.1275   39.6262 da         1 CLA      0.174300
    114 HHC        75.5751   61.1154   42.5666 da         1 CLA      0.136800
    115 HHB        79.8305   60.6338   37.9230 da         1 CLA      0.138300
    116 HBD        75.0848   57.5457   33.3932 dc         1 CLA      0.107700
    117 HAB        77.1102   62.5568   43.2112 da         1 CLA      0.155200
    118 H93        87.3451   54.9249   35.8204 dc         1 CLA      0.069500
    119 H92        87.1052   56.0276   34.5266 dc         1 CLA      0.069500
    120 H91        87.4929   56.6287   36.1053 dc         1 CLA      0.069500
    121 H8         84.9853   56.9762   35.4928 dc         1 CLA      0.029300
    122 H72        83.6186   54.7151   35.8770 dc         1 CLA      0.044400
    123 H71        85.1042   53.9778   35.5153 dc         1 CLA      0.044400
    124 H62        85.2116   54.8250   33.3107 dc         1 CLA      0.015600
    125 H61        83.8934   55.9899   33.5253 dc         1 CLA      0.015600
    126 H52        83.6223   52.9209   33.6342 dc         1 CLA      0.033200
    127 H51        83.2569   54.0051   32.2215 dc         1 CLA      0.033200
    128 H43        80.2339   52.9827   34.6256 dc         1 CLA      0.037000
    129 H42        81.4819   51.8141   34.0393 dc         1 CLA      0.037000
    130 H41        81.6629   52.7414   35.6117 dc         1 CLA      0.037000
    131 H3A        79.2828   60.2556   35.3766 dc         1 CLA      0.041100
    132 H2A        78.3428   57.3106   34.7611 dc         1 CLA      0.083100
    133 H2         81.4308   55.8549   34.5602 da         1 CLA      0.180900
    134 H18        84.1484   60.7659   43.8735 dc         1 CLA     -0.003900
    135 H13        82.3308   55.9908   40.1829 dc         1 CLA      0.019700
    136 H12        79.4164   54.9800   32.4106 dc         1 CLA      0.120400
    137 H11        80.9310   55.7518   31.6723 dc         1 CLA      0.120400
    138 C1         68.4406   60.6084   49.4928 Z1         2 LUT      0.509236
    139 C2         67.9057   61.3606   50.7981 Z2         2 LUT     -0.434695
    140 C3         66.3964   61.7147   50.7903 Z3         2 LUT      0.437453
    141 O3         66.0917   62.5623   51.8962 S1         2 LUT     -0.547129
    142 C4         66.2568   62.5199   49.5081 Z4         2 LUT     -0.468603
    143 C5         67.0620   62.3359   48.2929 Z5         2 LUT      0.279246
    144 C6         68.0134   61.3753   48.2452 Z6         2 LUT     -0.305473
    145 C7         68.8711   61.1661   47.0995 Z7         2 LUT      0.069402
    146 C8         69.4520   62.0885   46.2600 Z8         2 LUT     -0.191631
    147 C9         70.0508   61.8994   44.8299 Z9         2 LUT      0.196698
    148 C10        70.7891   62.9422   44.2692 Y1         2 LUT     -0.208611
    149 C11        71.4156   62.8799   42.9734 Y2         2 LUT      0.030784
    150 C12        72.5723   63.6415   42.7219 Y3         2 LUT     -0.220316
    151 C13        73.4818   63.5374   41.6977 Y4         2 LUT      0.215937
    152 C14        74.6649   64.2711   41.6896 Y5         2 LUT     -0.185793
    153 C15        75.7952   64.2764   40.7612 Y6         2 LUT     -0.057835
    154 C16        68.0154   59.1067   49.3968 Y7         2 LUT     -0.405615
    155 C17        69.9804   60.4201   49.5446 Y7         2 LUT     -0.405615
    156 C18        66.6732   63.2714   47.1994 Y9         2 LUT     -0.369639
    157 C19        69.7707   60.6369   44.0287 W1         2 LUT     -0.333362
    158 C20        73.1607   62.6257   40.5320 W2         2 LUT     -0.323439
    159 C21        87.1141   65.9162   34.6138 Z1         2 LUT      0.406104
    160 C22        87.8820   65.6615   33.3446 Z2         2 LUT     -0.404965
    161 C23        87.9342   66.9048   32.4200 Z3         2 LUT      0.391255
    162 O23        88.8082   66.5382   31.3718 S1         2 LUT     -0.528210
    163 C24        86.5382   67.5269   32.1781 W6         2 LUT     -0.258361
    164 C25        85.4951   67.4021   32.9621 Z5         2 LUT      0.133546
    165 C26        85.6709   66.4343   34.2202 W8         2 LUT     -0.147008
    166 C27        84.9045   66.9658   35.4048 Z7         2 LUT      0.023843
    167 C28        83.9015   66.2568   36.0047 Z8         2 LUT     -0.216987
    168 C29        82.9870   66.7738   37.0199 Z9         2 LUT      0.206524
    169 C30        82.0286   65.9570   37.4722 Y1         2 LUT     -0.215556
    170 C31        81.0961   66.2122   38.5370 Y2         2 LUT      0.025142
    171 C32        80.0239   65.3798   38.8682 Y3         2 LUT     -0.212209
    172 C33        79.0744   65.7098   39.8546 Y4         2 LUT      0.240937
    173 C34        78.0335   64.8998   39.9582 Y5         2 LUT     -0.218862
    174 C35        76.8875   65.0563   40.8691 Y6         2 LUT     -0.023547
    175 C36        87.9688   66.7143   35.5804 Y7         2 LUT     -0.393485
    176 C37        86.9894   64.5416   35.3397 Y7         2 LUT     -0.393485
    177 C38        84.1481   68.0343   32.6867 Y9         2 LUT     -0.387526
    178 C39        83.2359   68.2486   37.5163 W1         2 LUT     -0.322618
    179 C40        79.4133   66.8480   40.8717 W2         2 LUT     -0.358472
    180 H403       78.6376   67.1072   41.5783 R7         2 LUT      0.097720
    181 H402       80.3247   66.6396   41.3842 R7         2 LUT      0.097720
    182 H401       79.5951   67.7072   40.2899 R7         2 LUT      0.097720
    183 H393       82.6716   68.6583   38.3550 R4         2 LUT      0.082505
    184 H392       84.3053   68.4529   37.7943 R4         2 LUT      0.082505
    185 H391       82.9459   68.8906   36.7381 R4         2 LUT      0.082505
    186 H383       84.0825   68.4895   31.6669 R1         2 LUT      0.104030
    187 H382       83.4001   67.1942   32.6122 R1         2 LUT      0.104030
    188 H381       83.8386   68.7603   33.4582 R1         2 LUT      0.104030
    189 H373       87.9753   64.2130   35.6492 T4         2 LUT      0.089537
    190 H372       86.3370   64.5224   36.2777 T4         2 LUT      0.089537
    191 H371       86.5615   63.8014   34.6629 T4         2 LUT      0.089537
    192 H363       88.9480   66.2553   35.8724 T4         2 LUT      0.089537
    193 H362       88.3011   67.6624   35.2246 T4         2 LUT      0.089537
    194 H361       87.3887   66.8441   36.4927 T4         2 LUT      0.089537
    195 H222       88.9475   65.3486   33.4201 U2         2 LUT      0.127376
    196 H221       87.3760   64.8525   32.8155 U2         2 LUT      0.127376
    197 H203       74.0213   62.3974   39.9532 R7         2 LUT      0.087068
    198 H202       72.5611   61.7512   40.7161 R7         2 LUT      0.087068
    199 H201       72.5347   63.1290   39.7264 R7         2 LUT      0.087068
    200 H193       70.6206   60.2591   43.4015 R4         2 LUT      0.089716
    201 H192       69.3594   59.9068   44.6233 R4         2 LUT      0.089716
    202 H191       69.0300   60.9472   43.2941 R4         2 LUT      0.089716
    203 H183       67.2121   64.1930   47.1493 R1         2 LUT      0.094572
    204 H182       66.4222   62.8334   46.1740 R1         2 LUT      0.094572
    205 H181       65.6837   63.6282   47.4523 R1         2 LUT      0.094572
    206 H173       70.2952   59.8973   50.4587 T4         2 LUT      0.093752
    207 H172       70.2677   59.8394   48.6470 T4         2 LUT      0.093752
    208 H171       70.4663   61.4021   49.4896 T4         2 LUT      0.093752
    209 H163       68.6025   58.4871   50.1469 T4         2 LUT      0.093752
    210 H162       66.9661   59.0950   49.6799 T4         2 LUT      0.093752
    211 H161       68.2453   58.6693   48.4168 T4         2 LUT      0.093752
    212 HO3        66.1020   62.0296   52.6649 Q1         2 LUT      0.300121
    213 H8         69.3774   63.1414   46.5826 U7         2 LUT      0.080784
    214 H7         68.8486   60.1242   46.7433 U6         2 LUT      0.042190
    215 H42        65.1473   62.8165   49.3601 U5         2 LUT      0.145166
    216 H41        66.5262   63.5387   49.7061 U5         2 LUT      0.145166
    217 H35        76.9926   65.7250   41.7268 T3         2 LUT      0.077919
    218 H34        78.0554   64.0907   39.2747 T2         2 LUT      0.073626
    219 H32        79.7755   64.5308   38.2251 T1         2 LUT      0.092510
    220 H31        81.3473   67.1461   39.0603 U9         2 LUT      0.070048
    221 H30        82.0452   64.9832   37.0151 U8         2 LUT      0.085442
    222 H3         65.7861   60.8324   50.8279 U3         2 LUT     -0.031596
    223 H28        83.5855   65.2607   35.6607 U7         2 LUT      0.084728
    224 H27        85.0672   67.9265   35.8064 U6         2 LUT      0.087291
    225 H26        85.3279   65.5007   33.7577 Q6         2 LUT      0.075325
    226 H24        86.5385   68.0050   31.1777 Q5         2 LUT      0.094482
    227 H23        88.4865   67.7929   32.8895 U3         2 LUT     -0.024869
    228 H22        67.9932   60.6437   51.6376 U2         2 LUT      0.127376
    229 H21        68.4840   62.3109   50.9019 U2         2 LUT      0.127376
    230 H15        75.7374   63.6110   39.8706 T3         2 LUT      0.093200
    231 H14        74.7902   64.8846   42.5276 T2         2 LUT      0.068865
    232 H12        72.7760   64.4743   43.4100 T1         2 LUT      0.095507
    233 H11        71.2077   62.0448   42.2803 U9         2 LUT      0.068930
    234 H10        70.9732   63.8259   44.8706 U8         2 LUT      0.083911
    235 H1         88.2561   66.1037   30.6477 Q1         2 LUT      0.297311
@<TRIPOS>BOND
    1     6     1 1
    2     7     2 1
    3     8     3 1
    4     9     4 1
    5    11     4 1
    6    12     6 1
    7    13     9 1
    8    16     9 1
    9    25     5 1
   10    25    16 1
   11    26    10 1
   12    26    17 1
   13    27    18 1
   14    28    14 1
   15    28    19 1
   16    29    12 1
   17    30    13 1
   18    31    24 1
   19    32     1 1
   20    32    25 1
   21    33    21 1
   22    33    26 1
   23    34    22 1
   24    34    27 1
   25    35    23 1
   26    35    28 1
   27    36    12 1
   28    36    24 1
   29    37    13 1
   30    37    15 1
   31    38    31 1
   32    39    20 1
   33    39    32 1
   34    40     2 1
   35    40    33 1
   36    41     3 1
   37    41    34 1
   38    42     4 1
   39    42    35 1
   40    43    38 1
   41    44     5 1
   42    44    17 1
   43    44    39 1
   44    45    10 1
   45    45    18 1
   46    45    40 1
   47    46    19 1
   48    46    41 1
   49    47    14 1
   50    47    16 1
   51    47    42 1
   52    48    38 1
   53    49    48 1
   54    50    49 1
   55    51    50 1
   56    52    51 1
   57    53    51 1
   58    54    53 1
   59    55    54 1
   60    56    55 1
   61    57    56 1
   62    58    56 1
   63    59    58 1
   64    60    59 1
   65    61    60 1
   66    62    61 1
   67    63    61 1
   68    64    27 1
   69    64    46 1
   70    65     5 1
   71    65    10 1
   72    65    64 1
   73    65    14 1
   74    66    23 1
   75    67    23 1
   76    68    23 1
   77    69    22 1
   78    70    22 1
   79    71    22 1
   80    72    21 1
   81    73    21 1
   82    74    21 1
   83    75    20 1
   84    76    20 1
   85    77    20 1
   86    78    15 1
   87    79    15 1
   88    80    15 1
   89    81     8 1
   90    82     8 1
   91    83     8 1
   92    84     7 1
   93    85     7 1
   94    86     6 1
   95    87     6 1
   96    88     3 1
   97    89     3 1
   98    90     1 1
   99    91     1 1
  100    92    63 1
  101    93    63 1
  102    94    63 1
  103    95    62 1
  104    96    62 1
  105    97    62 1
  106    98    60 1
  107    99    60 1
  108   100    59 1
  109   101    59 1
  110   102    58 1
  111   103    58 1
  112   104    57 1
  113   105    57 1
  114   106    57 1
  115   107    55 1
  116   108    55 1
  117   109    54 1
  118   110    54 1
  119   111    53 1
  120   112    53 1
  121   113    19 1
  122   114    18 1
  123   115    17 1
  124   116     9 1
  125   117     2 1
  126   118    52 1
  127   119    52 1
  128   120    52 1
  129   121    51 1
  130   122    50 1
  131   123    50 1
  132   124    49 1
  133   125    49 1
  134   126    48 1
  135   127    48 1
  136   128    43 1
  137   129    43 1
  138   130    43 1
  139   131    39 1
  140   132    32 1
  141   133    31 1
  142   134    61 1
  143   135    56 1
  144   136    24 1
  145   137    24 1
  146   139   138 1
  147   140   139 1
  148   141   140 1
  149   142   140 1
  150   143   142 1
  151   144   138 1
  152   144   143 1
  153   145   144 1
  154   146   145 1
  155   147   146 1
  156   148   147 1
  157   149   148 1
  158   150   149 1
  159   151   150 1
  160   152   151 1
  161   153   152 1
  162   154   138 1
  163   155   138 1
  164   156   143 1
  165   157   147 1
  166   158   151 1
  167   160   159 1
  168   161   160 1
  169   162   161 1
  170   163   161 1
  171   164   163 1
  172   165   159 1
  173   165   164 1
  174   166   165 1
  175   167   166 1
  176   168   167 1
  177   169   168 1
  178   170   169 1
  179   171   170 1
  180   172   171 1
  181   173   172 1
  182   174   153 1
  183   174   173 1
  184   175   159 1
  185   176   159 1
  186   177   164 1
  187   178   168 1
  188   179   172 1
  189   180   179 1
  190   181   179 1
  191   182   179 1
  192   183   178 1
  193   184   178 1
  194   185   178 1
  195   186   177 1
  196   187   177 1
  197   188   177 1
  198   189   176 1
  199   190   176 1
  200   191   176 1
  201   192   175 1
  202   193   175 1
  203   194   175 1
  204   195   160 1
  205   196   160 1
  206   197   158 1
  207   198   158 1
  208   199   158 1
  209   200   157 1
  210   201   157 1
  211   202   157 1
  212   203   156 1
  213   204   156 1
  214   205   156 1
  215   206   155 1
  216   207   155 1
  217   208   155 1
  218   209   154 1
  219   210   154 1
  220   211   154 1
  221   212   141 1
  222   213   146 1
  223   214   145 1
  224   215   142 1
  225   216   142 1
  226   217   174 1
  227   218   173 1
  228   219   171 1
  229   220   170 1
  230   221   169 1
  231   222   140 1
  232   223   167 1
  233   224   166 1
  234   225   165 1
  235   226   163 1
  236   227   161 1
  237   228   139 1
  238   229   139 1
  239   230   153 1
  240   231   152 1
  241   232   150 1
  242   233   149 1
  243   234   148 1
  244   235   162 1
  245   65    153 1
  246   65    174 1
@<TRIPOS>SUBSTRUCTURE
      1 CLA               1 ****               0 ****  **** 
      2 LUT             138 ****               0 ****  **** 
