@<TRIPOS>MOLECULE
Cpptraj generated mol2 file.
  235   246     2     0     0
SMALL
USER_CHARGES


@<TRIPOS>ATOM
      1 CAA        79.0329   57.8406   35.1008 a2         1 CLA     -0.055900
      2 CAB        77.6382   60.9876   44.2082 c8         1 CLA     -0.148500
      3 CAC        71.4421   56.0487   42.6726 a2         1 CLA     -0.012600
      4 CAD        75.0133   54.8553   35.5540 ck         1 CLA      0.398800
      5 NA         77.6095   57.9344   38.3475 ns         1 CLA     -0.225500
      6 CBA        80.4107   57.7409   34.3901 a2         1 CLA     -0.135000
      7 CBB        78.4601   60.6614   45.2389 c0         1 CLA     -0.395200
      8 CBC        71.7430   54.5849   42.8015 a3         1 CLA     -0.037700
      9 CBD        76.4693   55.6120   35.3803 a1         1 CLA     -0.053900
     10 NB         76.9469   59.2834   40.9156 nm         1 CLA     -0.295700
     11 OBD        74.6086   53.9507   34.8478 o2         1 CLA     -0.494600
     12 CGA        81.0451   56.3519   34.2032 c4         1 CLA      0.827000
     13 CGD        77.5195   54.4691   35.4059 c4         1 CLA      0.655300
     14 ND         74.8020   56.8269   38.4625 nm         1 CLA     -0.291600
     15 CED        77.9443   52.3639   36.3072 a3         1 CLA      0.005400
     16 CHA        76.5521   56.5987   36.6274 cs         1 CLA     -0.123800
     17 CHB        79.0645   59.3609   39.7263 aa         1 CLA     -0.291900
     18 CHC        75.3481   59.2885   42.8053 aa         1 CLA     -0.090400
     19 CHD        72.8811   56.2746   39.9202 aa         1 CLA     -0.052000
     20 CMA        81.1855   57.7745   38.2016 a3         1 CLA     -0.230700
     21 CMB        80.0748   61.0658   42.0910 a3         1 CLA     -0.180800
     22 CMC        73.0186   58.1926   44.6288 a3         1 CLA     -0.134000
     23 CMD        72.1472   54.2496   37.4971 a3         1 CLA     -0.141100
     24 C1         82.0130   54.4214   35.2935 a2         1 CLA      0.023000
     25 C1A        77.6818   57.2600   37.1644 ac         1 CLA     -0.015100
     26 C1B        78.2475   59.6813   40.8129 cr         1 CLA      0.054700
     27 C1C        74.3801   58.4394   42.3865 cn         1 CLA     -0.005600
     28 C1D        73.6005   56.1403   38.6806 ap         1 CLA     -0.047300
     29 O1A        81.0838   55.7351   33.1708 o2         1 CLA     -0.610800
     30 O1D        78.4130   54.3579   34.5875 o2         1 CLA     -0.558200
     31 C2         82.0050   53.8063   36.7075 c8         1 CLA     -0.325100
     32 C2A        79.0814   57.3189   36.5690 a1         1 CLA      0.098600
     33 C2B        78.6565   60.5423   41.9245 cb         1 CLA      0.088500
     34 C2C        73.2328   57.9367   43.1449 cb         1 CLA      0.053700
     35 C2D        73.2257   55.2923   37.5600 cb         1 CLA      0.058900
     36 O2A        81.5710   55.8024   35.3468 o1         1 CLA     -0.437200
     37 O2D        77.1868   53.5596   36.4365 o1         1 CLA     -0.357600
     38 C3         82.8134   52.9060   37.1804 c5         1 CLA      0.031200
     39 C3A        79.8641   58.2684   37.6149 a1         1 CLA      0.166800
     40 C3B        77.6146   60.4260   42.8642 cb         1 CLA      0.035000
     41 C3C        72.6017   56.9487   42.2952 cb         1 CLA     -0.089900
     42 C3D        74.3879   55.4290   36.7082 cb         1 CLA     -0.035900
     43 C4         82.5084   51.4435   37.0509 a3         1 CLA     -0.053300
     44 C4A        78.8059   58.5016   38.6429 ac         1 CLA      0.001800
     45 C4B        76.5518   59.6388   42.2043 cn         1 CLA     -0.020900
     46 C4C        73.2476   57.0020   41.0663 cr         1 CLA     -0.044400
     47 C4D        75.2887   56.3436   37.3260 c6         1 CLA     -0.046000
     48 C5         84.0143   53.2043   38.0378 a2         1 CLA     -0.070400
     49 C6         84.6551   54.6088   37.8137 a2         1 CLA      0.043900
     50 C7         85.3386   55.1025   39.0886 a2         1 CLA     -0.150000
     51 C8         85.8178   56.6063   39.1043 a1         1 CLA      0.064200
     52 C9         86.9816   56.9357   38.0934 a3         1 CLA     -0.259300
     53 C10        86.1332   57.1654   40.5642 a2         1 CLA     -0.071900
     54 C11        84.8384   57.2437   41.5230 a2         1 CLA      0.014500
     55 C12        85.0472   58.1046   42.7527 a2         1 CLA     -0.112100
     56 C13        85.7991   57.6171   44.0482 a1         1 CLA      0.089200
     57 C14        85.0987   56.3330   44.6254 a3         1 CLA     -0.239100
     58 C15        85.9137   58.8105   45.1036 a2         1 CLA     -0.102200
     59 C16        84.5204   59.4400   45.5585 a2         1 CLA      0.023900
     60 C17        84.7195   60.4269   46.7512 a2         1 CLA     -0.105700
     61 C18        83.4153   61.1661   47.0693 a1         1 CLA      0.206800
     62 C19        82.5373   60.4434   48.2219 a3         1 CLA     -0.280100
     63 C20        83.6268   62.4864   47.7272 a3         1 CLA     -0.280100
     64 NC         74.3750   57.8941   41.1630 nx         1 CLA     -0.309200
     65 MG         75.8813   58.1573   39.6831 mg         1 CLA      0.895000
     66 HMD3       72.5342   53.3947   36.9925 dc         1 CLA      0.064300
     67 HMD2       71.8574   54.0660   38.5401 dc         1 CLA      0.064300
     68 HMD1       71.2354   54.6594   37.0394 dc         1 CLA      0.064300
     69 HMC3       73.6603   57.5096   45.3021 dc         1 CLA      0.052100
     70 HMC2       73.4238   59.2013   44.7751 dc         1 CLA      0.052100
     71 HMC1       71.9335   58.1192   44.8424 dc         1 CLA      0.052100
     72 HMB3       80.8388   60.3080   41.9470 dc         1 CLA      0.063600
     73 HMB2       80.3618   61.7986   41.3470 dc         1 CLA      0.063600
     74 HMB1       80.1881   61.6148   42.9522 dc         1 CLA      0.063600
     75 HMA3       81.0595   56.9436   38.8895 dc         1 CLA      0.058300
     76 HMA2       81.8721   57.6053   37.3777 dc         1 CLA      0.058300
     77 HMA1       81.5643   58.5853   38.7786 dc         1 CLA      0.058300
     78 HED3       79.0358   52.4249   36.5463 dc         1 CLA      0.079300
     79 HED2       77.4635   51.6376   36.9430 dc         1 CLA      0.079300
     80 HED1       77.7221   51.8563   35.3349 dc         1 CLA      0.079300
     81 HBC3       72.0299   54.0923   41.8463 dc         1 CLA      0.016300
     82 HBC2       72.5833   54.5131   43.5816 dc         1 CLA      0.016300
     83 HBC1       70.8076   54.1671   43.2359 dc         1 CLA      0.016300
     84 HBB2       78.3843   61.1663   46.2104 da         1 CLA      0.183000
     85 HBB1       79.1439   59.7720   45.2539 da         1 CLA      0.183000
     86 HBA2       80.4446   58.2299   33.3530 dc         1 CLA      0.029400
     87 HBA1       81.0131   58.3504   35.0795 dc         1 CLA      0.029400
     88 HAC2       71.0331   56.3065   43.6303 dc         1 CLA      0.029300
     89 HAC1       70.6598   56.2019   41.8696 dc         1 CLA      0.029300
     90 HAA2       78.3967   57.1935   34.4502 dc         1 CLA      0.028700
     91 HAA1       78.7607   58.8676   34.9173 dc         1 CLA      0.028700
     92 H203       82.8239   62.9652   48.2214 dc         1 CLA      0.065600
     93 H202       84.3299   62.2788   48.4762 dc         1 CLA      0.065600
     94 H201       84.1303   63.2368   47.1197 dc         1 CLA      0.065600
     95 H193       82.9933   60.6546   49.1646 dc         1 CLA      0.065600
     96 H192       81.5056   60.8725   48.2076 dc         1 CLA      0.065600
     97 H191       82.5073   59.3224   48.1422 dc         1 CLA      0.065600
     98 H172       85.0853   59.8121   47.5915 dc         1 CLA      0.027600
     99 H171       85.5220   61.0795   46.5088 dc         1 CLA      0.027600
    100 H162       83.9638   59.9851   44.7659 dc         1 CLA      0.002900
    101 H161       83.8254   58.6566   45.8651 dc         1 CLA      0.002900
    102 H152       86.3637   58.5293   46.0150 dc         1 CLA      0.029100
    103 H151       86.5522   59.5709   44.6973 dc         1 CLA      0.029100
    104 H143       85.4032   55.9905   45.6461 dc         1 CLA      0.063600
    105 H142       84.0663   56.5666   44.7110 dc         1 CLA      0.063600
    106 H141       85.3599   55.5231   44.0065 dc         1 CLA      0.063600
    107 H122       85.4935   59.0157   42.4699 dc         1 CLA      0.032500
    108 H121       84.0481   58.3181   43.1062 dc         1 CLA      0.032500
    109 H112       84.0166   57.6831   40.9365 dc         1 CLA      0.006600
    110 H111       84.6505   56.2214   41.7843 dc         1 CLA      0.006600
    111 H102       86.8652   56.5664   41.0384 dc         1 CLA      0.024100
    112 H101       86.5350   58.1669   40.4963 dc         1 CLA      0.024100
    113 HHD        71.9731   55.6850   39.9500 da         1 CLA      0.174300
    114 HHC        75.1471   59.7206   43.7515 da         1 CLA      0.136800
    115 HHB        79.9982   59.8622   39.7613 da         1 CLA      0.138300
    116 HBD        76.3857   56.0863   34.3790 dc         1 CLA      0.107700
    117 HAB        76.8287   61.6615   44.4897 da         1 CLA      0.155200
    118 H93        87.1851   57.9746   38.1593 dc         1 CLA      0.069500
    119 H92        87.9179   56.5264   38.3899 dc         1 CLA      0.069500
    120 H91        86.8258   56.7143   37.0344 dc         1 CLA      0.069500
    121 H8         84.9484   57.1590   38.7991 dc         1 CLA      0.029300
    122 H72        84.7095   54.9114   39.8930 dc         1 CLA      0.044400
    123 H71        86.2345   54.5449   39.1604 dc         1 CLA      0.044400
    124 H62        85.3098   54.5655   36.9039 dc         1 CLA      0.015600
    125 H61        83.7836   55.2131   37.6297 dc         1 CLA      0.015600
    126 H52        83.6705   52.9740   39.0839 dc         1 CLA      0.033200
    127 H51        84.7808   52.5315   37.7799 dc         1 CLA      0.033200
    128 H43        81.5704   51.4684   36.3968 dc         1 CLA      0.037000
    129 H42        83.2346   50.8878   36.4843 dc         1 CLA      0.037000
    130 H41        82.2408   51.0302   38.0105 dc         1 CLA      0.037000
    131 H3A        80.1340   59.2874   37.2921 dc         1 CLA      0.041100
    132 H2A        79.4613   56.3453   36.5325 dc         1 CLA      0.083100
    133 H2         81.1727   54.1381   37.4665 da         1 CLA      0.180900
    134 H18        82.8939   61.3226   46.1674 dc         1 CLA     -0.003900
    135 H13        86.8362   57.3669   43.7611 dc         1 CLA      0.019700
    136 H12        81.4473   53.7849   34.4750 dc         1 CLA      0.120400
    137 H11        83.0519   54.6405   35.0107 dc         1 CLA      0.120400
    138 C1         68.4248   60.3830   50.2830 Z1         2 LUT      0.509236
    139 C2         67.0814   60.2936   51.1038 Z2         2 LUT     -0.434695
    140 C3         66.4754   61.6496   51.3255 Z3         2 LUT      0.437453
    141 O3         66.8212   62.2483   52.5616 S1         2 LUT     -0.547129
    142 C4         66.5666   62.6465   50.1500 Z4         2 LUT     -0.468603
    143 C5         67.4544   62.3426   49.0005 Z5         2 LUT      0.279246
    144 C6         68.3310   61.2772   48.9965 Z6         2 LUT     -0.305473
    145 C7         68.7800   60.6079   47.7038 Z7         2 LUT      0.069402
    146 C8         69.5362   61.2483   46.7531 Z8         2 LUT     -0.191631
    147 C9         70.0137   60.8008   45.3874 Z9         2 LUT      0.196698
    148 C10        71.0210   61.5833   44.7766 Y1         2 LUT     -0.208611
    149 C11        71.6725   61.4369   43.5531 Y2         2 LUT      0.030784
    150 C12        72.7819   62.1541   43.2356 Y3         2 LUT     -0.220316
    151 C13        73.6282   62.2553   42.1704 Y4         2 LUT      0.215937
    152 C14        74.7810   63.0230   42.3047 Y5         2 LUT     -0.185793
    153 C15        75.8755   63.1395   41.3927 Y6         2 LUT     -0.057835
    154 C16        68.9287   58.8717   50.2163 Y7         2 LUT     -0.405615
    155 C17        69.4108   61.2372   51.2216 Y7         2 LUT     -0.405615
    156 C18        66.8846   63.1620   47.8290 Y9         2 LUT     -0.369639
    157 C19        69.4127   59.6312   44.7363 W1         2 LUT     -0.333362
    158 C20        73.2090   61.5572   40.8711 W2         2 LUT     -0.323439
    159 C21        87.2476   64.9786   35.3598 Z1         2 LUT      0.406104
    160 C22        88.1967   64.7113   34.2115 Z2         2 LUT     -0.404965
    161 C23        88.3680   65.8982   33.1922 Z3         2 LUT      0.391255
    162 O23        89.1846   65.4427   32.1083 S1         2 LUT     -0.528210
    163 C24        86.9718   66.5990   32.8311 W6         2 LUT     -0.258361
    164 C25        85.8578   66.3790   33.4896 Z5         2 LUT      0.133546
    165 C26        85.8064   65.4891   34.7265 W8         2 LUT     -0.147008
    166 C27        84.8203   66.0232   35.8437 Z7         2 LUT      0.023843
    167 C28        84.0149   65.3437   36.6430 Z8         2 LUT     -0.216987
    168 C29        83.3101   65.7252   37.8953 Z9         2 LUT      0.206524
    169 C30        82.1855   65.0134   38.2879 Y1         2 LUT     -0.215556
    170 C31        81.2701   65.2222   39.3645 Y2         2 LUT      0.025142
    171 C32        80.1278   64.6694   39.5994 Y3         2 LUT     -0.212209
    172 C33        79.2559   64.8160   40.7285 Y4         2 LUT      0.240937
    173 C34        78.2036   63.8866   40.6971 Y5         2 LUT     -0.218862
    174 C35        77.1239   63.8315   41.5708 Y6         2 LUT     -0.023547
    175 C36        87.9715   66.0117   36.2444 Y7         2 LUT     -0.393485
    176 C37        87.2099   63.6398   36.1729 Y7         2 LUT     -0.393485
    177 C38        84.4721   66.8376   33.1310 Y9         2 LUT     -0.387526
    178 C39        83.8238   67.0316   38.5526 W1         2 LUT     -0.322618
    179 C40        79.6642   65.6588   41.8727 W2         2 LUT     -0.358472
    180 H403       80.7066   65.5410   42.2034 R7         2 LUT      0.097720
    181 H402       79.6688   66.7538   41.6451 R7         2 LUT      0.097720
    182 H401       79.0202   65.5771   42.7401 R7         2 LUT      0.097720
    183 H393       83.2065   67.2848   39.4051 R4         2 LUT      0.082505
    184 H392       84.8209   67.1156   38.9051 R4         2 LUT      0.082505
    185 H391       83.6500   67.8088   37.8077 R4         2 LUT      0.082505
    186 H383       84.3460   67.8782   33.3408 R1         2 LUT      0.104030
    187 H382       84.2446   66.8477   32.0747 R1         2 LUT      0.104030
    188 H381       83.6826   66.2837   33.6256 R1         2 LUT      0.104030
    189 H373       86.4174   63.7369   36.8929 T4         2 LUT      0.089537
    190 H372       86.9870   62.8499   35.5350 T4         2 LUT      0.089537
    191 H371       88.0903   63.2555   36.7755 T4         2 LUT      0.089537
    192 H363       88.9594   65.6696   36.5705 T4         2 LUT      0.089537
    193 H362       87.9394   66.9894   35.8126 T4         2 LUT      0.089537
    194 H361       87.4061   66.1945   37.0842 T4         2 LUT      0.089537
    195 H222       89.2242   64.6389   34.5701 U2         2 LUT      0.127376
    196 H221       87.6724   63.8409   33.7152 U2         2 LUT      0.127376
    197 H203       72.3748   62.0088   40.4043 R7         2 LUT      0.087068
    198 H202       74.0034   61.3877   40.0975 R7         2 LUT      0.087068
    199 H201       72.9630   60.5330   41.1232 R7         2 LUT      0.087068
    200 H193       68.3560   59.4719   44.9524 R4         2 LUT      0.089716
    201 H192       69.4608   59.6218   43.6618 R4         2 LUT      0.089716
    202 H191       69.6940   58.7461   45.2189 R4         2 LUT      0.089716
    203 H183       67.4104   64.1317   47.6349 R1         2 LUT      0.094572
    204 H182       66.9320   62.5704   46.8735 R1         2 LUT      0.094572
    205 H181       65.7722   63.2584   47.9504 R1         2 LUT      0.094572
    206 H173       70.4536   61.3587   50.8962 T4         2 LUT      0.093752
    207 H172       68.9279   62.2133   51.2866 T4         2 LUT      0.093752
    208 H171       69.4964   60.9301   52.1910 T4         2 LUT      0.093752
    209 H163       68.1533   58.3518   49.6974 T4         2 LUT      0.093752
    210 H162       69.8747   58.8528   49.7178 T4         2 LUT      0.093752
    211 H161       69.0773   58.4466   51.1461 T4         2 LUT      0.093752
    212 HO3        66.4016   61.7619   53.2915 Q1         2 LUT      0.300121
    213 H8         69.8233   62.2660   47.0113 U7         2 LUT      0.080784
    214 H7         68.3566   59.5912   47.5229 U6         2 LUT      0.042190
    215 H42        65.5089   63.0973   50.0739 U5         2 LUT      0.145166
    216 H41        67.1028   63.5369   50.4946 U5         2 LUT      0.145166
    217 H35        77.0694   64.4193   42.5207 T3         2 LUT      0.077919
    218 H34        78.1593   63.2379   39.8024 T2         2 LUT      0.073626
    219 H32        79.9041   63.9821   38.7928 T1         2 LUT      0.092510
    220 H31        81.6168   65.9331   40.1222 U9         2 LUT      0.070048
    221 H30        81.8564   64.2331   37.6524 U8         2 LUT      0.085442
    222 H3         65.4061   61.2995   51.2314 U3         2 LUT     -0.031596
    223 H28        83.8108   64.3182   36.2967 U7         2 LUT      0.084728
    224 H27        84.9161   67.0571   36.1991 U6         2 LUT      0.087291
    225 H26        85.4119   64.5695   34.2875 Q6         2 LUT      0.075325
    226 H24        86.8954   67.3737   32.0387 Q5         2 LUT      0.094482
    227 H23        89.0104   66.6316   33.7285 U3         2 LUT     -0.024869
    228 H22        66.3681   59.7265   50.5502 U2         2 LUT      0.127376
    229 H21        67.1450   59.7316   52.0172 U2         2 LUT      0.127376
    230 H15        75.8439   62.6099   40.4273 T3         2 LUT      0.093200
    231 H14        74.8894   63.5228   43.2514 T2         2 LUT      0.068865
    232 H12        73.1639   62.7140   44.0683 T1         2 LUT      0.095507
    233 H11        71.3318   60.7176   42.8302 U9         2 LUT      0.068930
    234 H10        71.3435   62.3510   45.4186 U8         2 LUT      0.083911
    235 H1         88.7816   64.6842   31.6358 Q1         2 LUT      0.297311
@<TRIPOS>BOND
    1     6     1 1
    2     7     2 1
    3     8     3 1
    4     9     4 1
    5    11     4 1
    6    12     6 1
    7    13     9 1
    8    16     9 1
    9    25     5 1
   10    25    16 1
   11    26    10 1
   12    26    17 1
   13    27    18 1
   14    28    14 1
   15    28    19 1
   16    29    12 1
   17    30    13 1
   18    31    24 1
   19    32     1 1
   20    32    25 1
   21    33    21 1
   22    33    26 1
   23    34    22 1
   24    34    27 1
   25    35    23 1
   26    35    28 1
   27    36    12 1
   28    36    24 1
   29    37    13 1
   30    37    15 1
   31    38    31 1
   32    39    20 1
   33    39    32 1
   34    40     2 1
   35    40    33 1
   36    41     3 1
   37    41    34 1
   38    42     4 1
   39    42    35 1
   40    43    38 1
   41    44     5 1
   42    44    17 1
   43    44    39 1
   44    45    10 1
   45    45    18 1
   46    45    40 1
   47    46    19 1
   48    46    41 1
   49    47    14 1
   50    47    16 1
   51    47    42 1
   52    48    38 1
   53    49    48 1
   54    50    49 1
   55    51    50 1
   56    52    51 1
   57    53    51 1
   58    54    53 1
   59    55    54 1
   60    56    55 1
   61    57    56 1
   62    58    56 1
   63    59    58 1
   64    60    59 1
   65    61    60 1
   66    62    61 1
   67    63    61 1
   68    64    27 1
   69    64    46 1
   70    65     5 1
   71    65    10 1
   72    65    64 1
   73    65    14 1
   74    66    23 1
   75    67    23 1
   76    68    23 1
   77    69    22 1
   78    70    22 1
   79    71    22 1
   80    72    21 1
   81    73    21 1
   82    74    21 1
   83    75    20 1
   84    76    20 1
   85    77    20 1
   86    78    15 1
   87    79    15 1
   88    80    15 1
   89    81     8 1
   90    82     8 1
   91    83     8 1
   92    84     7 1
   93    85     7 1
   94    86     6 1
   95    87     6 1
   96    88     3 1
   97    89     3 1
   98    90     1 1
   99    91     1 1
  100    92    63 1
  101    93    63 1
  102    94    63 1
  103    95    62 1
  104    96    62 1
  105    97    62 1
  106    98    60 1
  107    99    60 1
  108   100    59 1
  109   101    59 1
  110   102    58 1
  111   103    58 1
  112   104    57 1
  113   105    57 1
  114   106    57 1
  115   107    55 1
  116   108    55 1
  117   109    54 1
  118   110    54 1
  119   111    53 1
  120   112    53 1
  121   113    19 1
  122   114    18 1
  123   115    17 1
  124   116     9 1
  125   117     2 1
  126   118    52 1
  127   119    52 1
  128   120    52 1
  129   121    51 1
  130   122    50 1
  131   123    50 1
  132   124    49 1
  133   125    49 1
  134   126    48 1
  135   127    48 1
  136   128    43 1
  137   129    43 1
  138   130    43 1
  139   131    39 1
  140   132    32 1
  141   133    31 1
  142   134    61 1
  143   135    56 1
  144   136    24 1
  145   137    24 1
  146   139   138 1
  147   140   139 1
  148   141   140 1
  149   142   140 1
  150   143   142 1
  151   144   138 1
  152   144   143 1
  153   145   144 1
  154   146   145 1
  155   147   146 1
  156   148   147 1
  157   149   148 1
  158   150   149 1
  159   151   150 1
  160   152   151 1
  161   153   152 1
  162   154   138 1
  163   155   138 1
  164   156   143 1
  165   157   147 1
  166   158   151 1
  167   160   159 1
  168   161   160 1
  169   162   161 1
  170   163   161 1
  171   164   163 1
  172   165   159 1
  173   165   164 1
  174   166   165 1
  175   167   166 1
  176   168   167 1
  177   169   168 1
  178   170   169 1
  179   171   170 1
  180   172   171 1
  181   173   172 1
  182   174   153 1
  183   174   173 1
  184   175   159 1
  185   176   159 1
  186   177   164 1
  187   178   168 1
  188   179   172 1
  189   180   179 1
  190   181   179 1
  191   182   179 1
  192   183   178 1
  193   184   178 1
  194   185   178 1
  195   186   177 1
  196   187   177 1
  197   188   177 1
  198   189   176 1
  199   190   176 1
  200   191   176 1
  201   192   175 1
  202   193   175 1
  203   194   175 1
  204   195   160 1
  205   196   160 1
  206   197   158 1
  207   198   158 1
  208   199   158 1
  209   200   157 1
  210   201   157 1
  211   202   157 1
  212   203   156 1
  213   204   156 1
  214   205   156 1
  215   206   155 1
  216   207   155 1
  217   208   155 1
  218   209   154 1
  219   210   154 1
  220   211   154 1
  221   212   141 1
  222   213   146 1
  223   214   145 1
  224   215   142 1
  225   216   142 1
  226   217   174 1
  227   218   173 1
  228   219   171 1
  229   220   170 1
  230   221   169 1
  231   222   140 1
  232   223   167 1
  233   224   166 1
  234   225   165 1
  235   226   163 1
  236   227   161 1
  237   228   139 1
  238   229   139 1
  239   230   153 1
  240   231   152 1
  241   232   150 1
  242   233   149 1
  243   234   148 1
  244   235   162 1
  245   65    153 1
  246   65    174 1
@<TRIPOS>SUBSTRUCTURE
      1 CLA               1 ****               0 ****  **** 
      2 LUT             138 ****               0 ****  **** 
