@<TRIPOS>MOLECULE
Cpptraj generated mol2 file.
  235   246     2     0     0
SMALL
USER_CHARGES


@<TRIPOS>ATOM
      1 CAA        78.8486   57.4931   34.9769 a2         1 CLA     -0.055900
      2 CAB        78.1230   61.0368   44.1739 c8         1 CLA     -0.148500
      3 CAC        71.4862   56.7336   43.0044 a2         1 CLA     -0.012600
      4 CAD        74.7817   54.8289   36.0177 ck         1 CLA      0.398800
      5 NA         77.4544   57.9606   38.3603 ns         1 CLA     -0.225500
      6 CBA        80.2472   57.3921   34.4149 a2         1 CLA     -0.135000
      7 CBB        79.2839   61.4609   44.7589 c0         1 CLA     -0.395200
      8 CBC        71.7050   55.1960   43.1609 a3         1 CLA     -0.037700
      9 CBD        76.1955   55.4627   35.7253 a1         1 CLA     -0.053900
     10 NB         77.0877   59.4860   40.9606 nm         1 CLA     -0.295700
     11 OBD        74.2004   54.0594   35.2557 o2         1 CLA     -0.494600
     12 CGA        80.8217   55.9596   34.3783 c4         1 CLA      0.827000
     13 CGD        77.3050   54.4420   35.6445 c4         1 CLA      0.655300
     14 ND         74.7613   56.8421   38.8225 nm         1 CLA     -0.291600
     15 CED        78.5061   52.6339   36.8640 a3         1 CLA      0.005400
     16 CHA        76.3095   56.3927   36.9482 cs         1 CLA     -0.123800
     17 CHB        78.9891   59.5412   39.4147 aa         1 CLA     -0.291900
     18 CHC        75.6398   59.4690   42.9997 aa         1 CLA     -0.090400
     19 CHD        72.7586   56.6574   40.1750 aa         1 CLA     -0.052000
     20 CMA        80.9879   57.6106   37.9817 a3         1 CLA     -0.230700
     21 CMB        80.2293   61.4474   41.5630 a3         1 CLA     -0.180800
     22 CMC        73.1658   58.8432   44.7002 a3         1 CLA     -0.134000
     23 CMD        71.9032   54.6001   37.9464 a3         1 CLA     -0.141100
     24 C1         82.1640   54.3385   35.6275 a2         1 CLA      0.023000
     25 C1A        77.4539   57.1897   37.2186 ac         1 CLA     -0.015100
     26 C1B        78.3010   59.9255   40.5944 cr         1 CLA      0.054700
     27 C1C        74.5965   58.6644   42.5716 cn         1 CLA     -0.005600
     28 C1D        73.5123   56.3527   39.0551 ap         1 CLA     -0.047300
     29 O1A        80.6706   55.2460   33.4165 o2         1 CLA     -0.610800
     30 O1D        78.0995   54.3320   34.7480 o2         1 CLA     -0.558200
     31 C2         82.6892   54.4454   37.0526 c8         1 CLA     -0.325100
     32 C2A        78.7934   57.1731   36.4575 a1         1 CLA      0.098600
     33 C2B        78.8324   60.7561   41.6612 cb         1 CLA      0.088500
     34 C2C        73.4455   58.3401   43.3488 cb         1 CLA      0.053700
     35 C2D        73.1395   55.4549   38.0079 cb         1 CLA      0.058900
     36 O2A        81.6231   55.6657   35.4778 o1         1 CLA     -0.437200
     37 O2D        77.4342   53.6745   36.7580 o1         1 CLA     -0.357600
     38 C3         83.6417   53.6656   37.5789 c5         1 CLA      0.031200
     39 C3A        79.6248   58.1567   37.4035 a1         1 CLA      0.166800
     40 C3B        78.0046   60.6201   42.7720 cb         1 CLA      0.035000
     41 C3C        72.7037   57.4532   42.5880 cb         1 CLA     -0.089900
     42 C3D        74.2460   55.4350   37.1640 cb         1 CLA     -0.035900
     43 C4         83.3085   52.4145   38.2654 a3         1 CLA     -0.053300
     44 C4A        78.6348   58.6459   38.4448 ac         1 CLA      0.001800
     45 C4B        76.8240   59.8214   42.2924 cn         1 CLA     -0.020900
     46 C4C        73.2431   57.4513   41.2658 cr         1 CLA     -0.044400
     47 C4D        75.2021   56.2806   37.6876 c6         1 CLA     -0.046000
     48 C5         84.9851   54.2382   37.4655 a2         1 CLA     -0.070400
     49 C6         85.4066   55.6828   37.8241 a2         1 CLA      0.043900
     50 C7         85.2070   55.9383   39.3613 a2         1 CLA     -0.150000
     51 C8         86.1017   57.0242   40.0168 a1         1 CLA      0.064200
     52 C9         87.6395   56.5905   39.9890 a3         1 CLA     -0.259300
     53 C10        85.6542   57.1651   41.5672 a2         1 CLA     -0.071900
     54 C11        84.2653   57.8794   41.7082 a2         1 CLA      0.014500
     55 C12        84.0661   58.6598   43.0292 a2         1 CLA     -0.112100
     56 C13        84.2317   57.9256   44.3640 a1         1 CLA      0.089200
     57 C14        83.0494   57.0508   44.8580 a3         1 CLA     -0.239100
     58 C15        84.6618   58.8610   45.5008 a2         1 CLA     -0.102200
     59 C16        83.6166   59.9321   45.9473 a2         1 CLA      0.023900
     60 C17        84.2950   60.7387   47.1082 a2         1 CLA     -0.105700
     61 C18        83.3652   61.7213   47.8593 a1         1 CLA      0.206800
     62 C19        82.3852   60.9821   48.8546 a3         1 CLA     -0.280100
     63 C20        84.1086   62.9658   48.4604 a3         1 CLA     -0.280100
     64 NC         74.4781   58.1626   41.3258 nx         1 CLA     -0.309200
     65 MG         75.9273   58.3018   39.8294 mg         1 CLA      0.895000
     66 HMD3       71.1347   55.2157   37.5202 dc         1 CLA      0.064300
     67 HMD2       72.0411   53.7943   37.2401 dc         1 CLA      0.064300
     68 HMD1       71.6402   54.1835   38.9438 dc         1 CLA      0.064300
     69 HMC3       72.1827   59.3455   44.6517 dc         1 CLA      0.052100
     70 HMC2       73.0594   57.9396   45.3303 dc         1 CLA      0.052100
     71 HMC1       73.8079   59.5268   45.2105 dc         1 CLA      0.052100
     72 HMB3       80.8322   60.5855   41.8713 dc         1 CLA      0.063600
     73 HMB2       80.4068   61.8073   40.5635 dc         1 CLA      0.063600
     74 HMB1       80.2497   62.2963   42.2286 dc         1 CLA      0.063600
     75 HMA3       81.3859   58.2580   38.7185 dc         1 CLA      0.058300
     76 HMA2       80.7427   56.7163   38.5537 dc         1 CLA      0.058300
     77 HMA1       81.7980   57.3376   37.2871 dc         1 CLA      0.058300
     78 HED3       78.4654   51.7821   36.1493 dc         1 CLA      0.079300
     79 HED2       79.4690   53.1800   36.7621 dc         1 CLA      0.079300
     80 HED1       78.4149   52.1735   37.7985 dc         1 CLA      0.079300
     81 HBC3       71.7787   54.7323   42.1532 dc         1 CLA      0.016300
     82 HBC2       72.6469   55.1266   43.7412 dc         1 CLA      0.016300
     83 HBC1       70.8016   54.8774   43.7523 dc         1 CLA      0.016300
     84 HBB2       79.2046   61.8661   45.7697 da         1 CLA      0.183000
     85 HBB1       80.2562   61.5176   44.2815 da         1 CLA      0.183000
     86 HBA2       80.2808   57.6337   33.3623 dc         1 CLA      0.029400
     87 HBA1       80.8971   58.0991   34.8808 dc         1 CLA      0.029400
     88 HAC2       71.0871   57.2430   43.8799 dc         1 CLA      0.029300
     89 HAC1       70.7159   56.8485   42.1821 dc         1 CLA      0.029300
     90 HAA2       78.1826   56.8172   34.5928 dc         1 CLA      0.028700
     91 HAA1       78.5367   58.5301   34.7634 dc         1 CLA      0.028700
     92 H203       83.3744   63.5460   48.8917 dc         1 CLA      0.065600
     93 H202       84.8019   62.6341   49.2613 dc         1 CLA      0.065600
     94 H201       84.5348   63.6116   47.7398 dc         1 CLA      0.065600
     95 H193       81.9240   61.6277   49.6082 dc         1 CLA      0.065600
     96 H192       81.6682   60.3384   48.3422 dc         1 CLA      0.065600
     97 H191       82.9946   60.2530   49.4012 dc         1 CLA      0.065600
     98 H172       84.7566   59.9448   47.6806 dc         1 CLA      0.027600
     99 H171       85.1194   61.3480   46.6191 dc         1 CLA      0.027600
    100 H162       83.3148   60.6210   45.1896 dc         1 CLA      0.002900
    101 H161       82.8294   59.3267   46.3788 dc         1 CLA      0.002900
    102 H152       84.9260   58.2463   46.3446 dc         1 CLA      0.029100
    103 H151       85.5680   59.3735   45.2457 dc         1 CLA      0.029100
    104 H143       82.2042   57.6738   44.9494 dc         1 CLA      0.063600
    105 H142       82.7753   56.2186   44.2231 dc         1 CLA      0.063600
    106 H141       83.3022   56.6921   45.8894 dc         1 CLA      0.063600
    107 H122       84.7827   59.3888   43.0379 dc         1 CLA      0.032500
    108 H121       83.0654   59.1276   43.0179 dc         1 CLA      0.032500
    109 H112       84.1662   58.5427   40.8427 dc         1 CLA      0.006600
    110 H111       83.5442   57.0160   41.7548 dc         1 CLA      0.006600
    111 H102       85.7489   56.2359   41.9905 dc         1 CLA      0.024100
    112 H101       86.3995   57.8097   42.0824 dc         1 CLA      0.024100
    113 HHD        71.8225   56.1122   40.2785 da         1 CLA      0.174300
    114 HHC        75.4941   59.9705   43.9581 da         1 CLA      0.136800
    115 HHB        80.0318   60.0521   39.2983 da         1 CLA      0.138300
    116 HBD        76.2209   55.9806   34.7517 dc         1 CLA      0.107700
    117 HAB        77.2488   60.9821   44.7734 da         1 CLA      0.155200
    118 H93        87.9766   56.7046   38.9775 dc         1 CLA      0.069500
    119 H92        88.2190   57.2521   40.5748 dc         1 CLA      0.069500
    120 H91        87.7719   55.5154   40.2542 dc         1 CLA      0.069500
    121 H8         85.9235   58.0161   39.6127 dc         1 CLA      0.029300
    122 H72        84.1716   55.9350   39.6156 dc         1 CLA      0.044400
    123 H71        85.5013   55.0257   39.8635 dc         1 CLA      0.044400
    124 H62        86.4415   55.8095   37.4135 dc         1 CLA      0.015600
    125 H61        84.7077   56.3114   37.2372 dc         1 CLA      0.015600
    126 H52        85.7392   53.6827   37.9992 dc         1 CLA      0.033200
    127 H51        85.1468   54.1456   36.3660 dc         1 CLA      0.033200
    128 H43        82.2439   52.1613   38.1321 dc         1 CLA      0.037000
    129 H42        83.8797   51.6588   37.8230 dc         1 CLA      0.037000
    130 H41        83.6448   52.5053   39.2446 dc         1 CLA      0.037000
    131 H3A        79.8448   59.1004   36.8151 dc         1 CLA      0.041100
    132 H2A        79.2380   56.2153   36.5950 dc         1 CLA      0.083100
    133 H2         82.2982   55.2347   37.6920 da         1 CLA      0.180900
    134 H18        82.7620   62.1394   47.0768 dc         1 CLA     -0.003900
    135 H13        85.1488   57.2833   44.2985 dc         1 CLA      0.019700
    136 H12        81.5805   53.4374   35.4577 dc         1 CLA      0.120400
    137 H11        83.0069   54.2766   34.9529 dc         1 CLA      0.120400
    138 C1         68.3138   60.6356   50.2837 Z1         2 LUT      0.509236
    139 C2         66.9473   60.4981   50.9749 Z2         2 LUT     -0.434695
    140 C3         66.1577   61.7622   51.3912 Z3         2 LUT      0.437453
    141 O3         66.3534   62.2083   52.7241 S1         2 LUT     -0.547129
    142 C4         66.4576   62.9977   50.5153 Z4         2 LUT     -0.468603
    143 C5         67.0778   62.5913   49.2392 Z5         2 LUT      0.279246
    144 C6         67.9807   61.5631   49.1309 Z6         2 LUT     -0.305473
    145 C7         68.3867   60.9996   47.8051 Z7         2 LUT      0.069402
    146 C8         69.1518   61.6372   46.9196 Z8         2 LUT     -0.191631
    147 C9         69.7486   61.1117   45.6478 Z9         2 LUT      0.196698
    148 C10        70.6539   62.0254   45.0657 Y1         2 LUT     -0.208611
    149 C11        71.5099   61.9117   43.9596 Y2         2 LUT      0.030784
    150 C12        72.6274   62.7178   43.6863 Y3         2 LUT     -0.220316
    151 C13        73.5548   62.4710   42.4926 Y4         2 LUT      0.215937
    152 C14        74.6788   63.2348   42.3332 Y5         2 LUT     -0.185793
    153 C15        75.7698   63.1590   41.4600 Y6         2 LUT     -0.057835
    154 C16        68.8830   59.2500   50.1255 Y7         2 LUT     -0.405615
    155 C17        69.2576   61.4002   51.3099 Y7         2 LUT     -0.405615
    156 C18        66.5492   63.3747   48.0619 Y9         2 LUT     -0.369639
    157 C19        69.5286   59.7122   45.0518 W1         2 LUT     -0.333362
    158 C20        72.9753   61.5522   41.3723 W2         2 LUT     -0.323439
    159 C21        86.9975   65.0382   35.3928 Z1         2 LUT      0.406104
    160 C22        87.7909   64.5344   34.1996 Z2         2 LUT     -0.404965
    161 C23        88.0088   65.6522   33.1027 Z3         2 LUT      0.391255
    162 O23        88.8779   65.0722   32.0655 S1         2 LUT     -0.528210
    163 C24        86.6380   66.3068   32.7359 W6         2 LUT     -0.258361
    164 C25        85.5249   66.2022   33.4913 Z5         2 LUT      0.133546
    165 C26        85.5369   65.4996   34.8422 W8         2 LUT     -0.147008
    166 C27        84.6830   66.1823   35.9383 Z7         2 LUT      0.023843
    167 C28        83.5030   65.7628   36.4578 Z8         2 LUT     -0.216987
    168 C29        82.9586   66.2446   37.6838 Z9         2 LUT      0.206524
    169 C30        81.9913   65.3297   38.1982 Y1         2 LUT     -0.215556
    170 C31        81.2764   65.4100   39.4395 Y2         2 LUT      0.025142
    171 C32        80.1585   64.6185   39.6921 Y3         2 LUT     -0.212209
    172 C33        79.1312   64.7284   40.7044 Y4         2 LUT      0.240937
    173 C34        77.9914   63.9493   40.6295 Y5         2 LUT     -0.218862
    174 C35        76.8460   63.9909   41.5316 Y6         2 LUT     -0.023547
    175 C36        87.9355   66.0719   36.1409 Y7         2 LUT     -0.393485
    176 C37        86.9436   63.8473   36.4571 Y7         2 LUT     -0.393485
    177 C38        84.1828   66.7527   32.9776 Y9         2 LUT     -0.387526
    178 C39        83.4085   67.5322   38.3636 W1         2 LUT     -0.322618
    179 C40        79.3846   65.7932   41.7683 W2         2 LUT     -0.358472
    180 H403       80.3164   65.5659   42.3365 R7         2 LUT      0.097720
    181 H402       79.4433   66.7242   41.3035 R7         2 LUT      0.097720
    182 H401       78.7037   65.9440   42.5867 R7         2 LUT      0.097720
    183 H393       83.4587   68.2368   37.5748 R4         2 LUT      0.082505
    184 H392       82.6732   67.9240   38.9974 R4         2 LUT      0.082505
    185 H391       84.4428   67.4838   38.7200 R4         2 LUT      0.082505
    186 H383       83.3700   66.0125   33.2161 R1         2 LUT      0.104030
    187 H382       83.9370   67.7252   33.4988 R1         2 LUT      0.104030
    188 H381       84.1443   66.8670   31.9169 R1         2 LUT      0.104030
    189 H373       86.6015   62.9741   35.9844 T4         2 LUT      0.089537
    190 H372       87.9302   63.6369   36.8540 T4         2 LUT      0.089537
    191 H371       86.3058   64.0246   37.2602 T4         2 LUT      0.089537
    192 H363       88.8596   65.6314   36.4437 T4         2 LUT      0.089537
    193 H362       88.0218   67.0761   35.6862 T4         2 LUT      0.089537
    194 H361       87.4967   66.3101   37.1156 T4         2 LUT      0.089537
    195 H222       88.7810   64.0992   34.5706 U2         2 LUT      0.127376
    196 H221       87.2757   63.6769   33.7601 U2         2 LUT      0.127376
    197 H203       73.3709   61.8116   40.4403 R7         2 LUT      0.087068
    198 H202       73.2374   60.5239   41.4965 R7         2 LUT      0.087068
    199 H201       71.8682   61.4719   41.2822 R7         2 LUT      0.087068
    200 H193       68.4550   59.5962   44.9088 R4         2 LUT      0.089716
    201 H192       70.0120   59.5282   44.0417 R4         2 LUT      0.089716
    202 H191       69.9316   58.8271   45.6629 R4         2 LUT      0.089716
    203 H183       66.9013   64.4447   48.0715 R1         2 LUT      0.094572
    204 H182       66.7371   62.9122   47.0658 R1         2 LUT      0.094572
    205 H181       65.4314   63.4076   48.0686 R1         2 LUT      0.094572
    206 H173       70.1577   61.8862   50.7290 T4         2 LUT      0.093752
    207 H172       68.7606   62.1366   51.9860 T4         2 LUT      0.093752
    208 H171       69.7038   60.7181   52.0440 T4         2 LUT      0.093752
    209 H163       68.2283   58.6811   49.4801 T4         2 LUT      0.093752
    210 H162       69.8494   59.2225   49.7019 T4         2 LUT      0.093752
    211 H161       68.9053   58.6482   51.0533 T4         2 LUT      0.093752
    212 HO3        65.9263   61.6776   53.4013 Q1         2 LUT      0.300121
    213 H8         69.4341   62.6509   47.1595 U7         2 LUT      0.080784
    214 H7         68.1907   59.9191   47.6758 U6         2 LUT      0.042190
    215 H42        65.5224   63.4933   50.1845 U5         2 LUT      0.145166
    216 H41        66.9887   63.7257   51.1391 U5         2 LUT      0.145166
    217 H35        76.7704   64.5710   42.4374 T3         2 LUT      0.077919
    218 H34        77.8806   63.2461   39.7701 T2         2 LUT      0.073626
    219 H32        79.8958   63.8674   38.9323 T1         2 LUT      0.092510
    220 H31        81.6558   66.2723   40.0706 U9         2 LUT      0.070048
    221 H30        81.8994   64.3952   37.5755 U8         2 LUT      0.085442
    222 H3         65.1210   61.4083   51.2039 U3         2 LUT     -0.031596
    223 H28        83.1674   64.8217   35.9516 U7         2 LUT      0.084728
    224 H27        85.2332   67.0161   36.3483 U6         2 LUT      0.087291
    225 H26        84.9683   64.5901   34.5929 Q6         2 LUT      0.075325
    226 H24        86.6110   66.9379   31.8548 Q5         2 LUT      0.094482
    227 H23        88.4634   66.4280   33.7505 U3         2 LUT     -0.024869
    228 H22        66.2566   60.0756   50.2410 U2         2 LUT      0.127376
    229 H21        66.9883   59.7213   51.7691 U2         2 LUT      0.127376
    230 H15        75.9272   62.4331   40.7364 T3         2 LUT      0.093200
    231 H14        74.6712   64.0035   43.1052 T2         2 LUT      0.068865
    232 H12        72.7963   63.4671   44.5173 T1         2 LUT      0.095507
    233 H11        71.2741   61.0150   43.3555 U9         2 LUT      0.068930
    234 H10        70.6250   62.9722   45.6076 U8         2 LUT      0.083911
    235 H1         88.3739   64.7623   31.3164 Q1         2 LUT      0.297311
@<TRIPOS>BOND
    1     6     1 1
    2     7     2 1
    3     8     3 1
    4     9     4 1
    5    11     4 1
    6    12     6 1
    7    13     9 1
    8    16     9 1
    9    25     5 1
   10    25    16 1
   11    26    10 1
   12    26    17 1
   13    27    18 1
   14    28    14 1
   15    28    19 1
   16    29    12 1
   17    30    13 1
   18    31    24 1
   19    32     1 1
   20    32    25 1
   21    33    21 1
   22    33    26 1
   23    34    22 1
   24    34    27 1
   25    35    23 1
   26    35    28 1
   27    36    12 1
   28    36    24 1
   29    37    13 1
   30    37    15 1
   31    38    31 1
   32    39    20 1
   33    39    32 1
   34    40     2 1
   35    40    33 1
   36    41     3 1
   37    41    34 1
   38    42     4 1
   39    42    35 1
   40    43    38 1
   41    44     5 1
   42    44    17 1
   43    44    39 1
   44    45    10 1
   45    45    18 1
   46    45    40 1
   47    46    19 1
   48    46    41 1
   49    47    14 1
   50    47    16 1
   51    47    42 1
   52    48    38 1
   53    49    48 1
   54    50    49 1
   55    51    50 1
   56    52    51 1
   57    53    51 1
   58    54    53 1
   59    55    54 1
   60    56    55 1
   61    57    56 1
   62    58    56 1
   63    59    58 1
   64    60    59 1
   65    61    60 1
   66    62    61 1
   67    63    61 1
   68    64    27 1
   69    64    46 1
   70    65     5 1
   71    65    10 1
   72    65    64 1
   73    65    14 1
   74    66    23 1
   75    67    23 1
   76    68    23 1
   77    69    22 1
   78    70    22 1
   79    71    22 1
   80    72    21 1
   81    73    21 1
   82    74    21 1
   83    75    20 1
   84    76    20 1
   85    77    20 1
   86    78    15 1
   87    79    15 1
   88    80    15 1
   89    81     8 1
   90    82     8 1
   91    83     8 1
   92    84     7 1
   93    85     7 1
   94    86     6 1
   95    87     6 1
   96    88     3 1
   97    89     3 1
   98    90     1 1
   99    91     1 1
  100    92    63 1
  101    93    63 1
  102    94    63 1
  103    95    62 1
  104    96    62 1
  105    97    62 1
  106    98    60 1
  107    99    60 1
  108   100    59 1
  109   101    59 1
  110   102    58 1
  111   103    58 1
  112   104    57 1
  113   105    57 1
  114   106    57 1
  115   107    55 1
  116   108    55 1
  117   109    54 1
  118   110    54 1
  119   111    53 1
  120   112    53 1
  121   113    19 1
  122   114    18 1
  123   115    17 1
  124   116     9 1
  125   117     2 1
  126   118    52 1
  127   119    52 1
  128   120    52 1
  129   121    51 1
  130   122    50 1
  131   123    50 1
  132   124    49 1
  133   125    49 1
  134   126    48 1
  135   127    48 1
  136   128    43 1
  137   129    43 1
  138   130    43 1
  139   131    39 1
  140   132    32 1
  141   133    31 1
  142   134    61 1
  143   135    56 1
  144   136    24 1
  145   137    24 1
  146   139   138 1
  147   140   139 1
  148   141   140 1
  149   142   140 1
  150   143   142 1
  151   144   138 1
  152   144   143 1
  153   145   144 1
  154   146   145 1
  155   147   146 1
  156   148   147 1
  157   149   148 1
  158   150   149 1
  159   151   150 1
  160   152   151 1
  161   153   152 1
  162   154   138 1
  163   155   138 1
  164   156   143 1
  165   157   147 1
  166   158   151 1
  167   160   159 1
  168   161   160 1
  169   162   161 1
  170   163   161 1
  171   164   163 1
  172   165   159 1
  173   165   164 1
  174   166   165 1
  175   167   166 1
  176   168   167 1
  177   169   168 1
  178   170   169 1
  179   171   170 1
  180   172   171 1
  181   173   172 1
  182   174   153 1
  183   174   173 1
  184   175   159 1
  185   176   159 1
  186   177   164 1
  187   178   168 1
  188   179   172 1
  189   180   179 1
  190   181   179 1
  191   182   179 1
  192   183   178 1
  193   184   178 1
  194   185   178 1
  195   186   177 1
  196   187   177 1
  197   188   177 1
  198   189   176 1
  199   190   176 1
  200   191   176 1
  201   192   175 1
  202   193   175 1
  203   194   175 1
  204   195   160 1
  205   196   160 1
  206   197   158 1
  207   198   158 1
  208   199   158 1
  209   200   157 1
  210   201   157 1
  211   202   157 1
  212   203   156 1
  213   204   156 1
  214   205   156 1
  215   206   155 1
  216   207   155 1
  217   208   155 1
  218   209   154 1
  219   210   154 1
  220   211   154 1
  221   212   141 1
  222   213   146 1
  223   214   145 1
  224   215   142 1
  225   216   142 1
  226   217   174 1
  227   218   173 1
  228   219   171 1
  229   220   170 1
  230   221   169 1
  231   222   140 1
  232   223   167 1
  233   224   166 1
  234   225   165 1
  235   226   163 1
  236   227   161 1
  237   228   139 1
  238   229   139 1
  239   230   153 1
  240   231   152 1
  241   232   150 1
  242   233   149 1
  243   234   148 1
  244   235   162 1
  245   65    153 1
  246   65    174 1
@<TRIPOS>SUBSTRUCTURE
      1 CLA               1 ****               0 ****  **** 
      2 LUT             138 ****               0 ****  **** 
