@<TRIPOS>MOLECULE
Cpptraj generated mol2 file.
  235   246     2     0     0
SMALL
USER_CHARGES


@<TRIPOS>ATOM
      1 CAA        78.2466   57.2488   35.0696 a2         1 CLA     -0.055900
      2 CAB        78.3659   60.8120   44.1976 c8         1 CLA     -0.148500
      3 CAC        71.3639   56.7402   43.7577 a2         1 CLA     -0.012600
      4 CAD        74.1369   54.5603   36.2058 ck         1 CLA      0.398800
      5 NA         77.2705   57.7043   38.4843 ns         1 CLA     -0.225500
      6 CBA        79.4368   57.1416   34.1114 a2         1 CLA     -0.135000
      7 CBB        78.1625   60.2363   45.3815 c0         1 CLA     -0.395200
      8 CBC        71.3713   55.2075   43.8415 a3         1 CLA     -0.037700
      9 CBD        75.6058   55.0974   35.9563 a1         1 CLA     -0.053900
     10 NB         77.1474   59.0536   41.0901 nm         1 CLA     -0.295700
     11 OBD        73.5431   53.6901   35.5574 o2         1 CLA     -0.494600
     12 CGA        79.9984   55.8434   33.5736 c4         1 CLA      0.827000
     13 CGD        76.5419   53.8926   35.7587 c4         1 CLA      0.655300
     14 ND         74.6443   56.5920   39.1343 nm         1 CLA     -0.291600
     15 CED        77.3229   51.7560   36.7670 a3         1 CLA      0.005400
     16 CHA        76.0285   56.0494   37.1367 cs         1 CLA     -0.123800
     17 CHB        78.9585   59.2891   39.3491 aa         1 CLA     -0.291900
     18 CHC        75.8145   59.1018   43.2056 aa         1 CLA     -0.090400
     19 CHD        72.7810   56.3538   40.7620 aa         1 CLA     -0.052000
     20 CMA        80.7142   57.4173   37.5361 a3         1 CLA     -0.230700
     21 CMB        80.3523   60.9731   41.7419 a3         1 CLA     -0.180800
     22 CMC        73.5575   58.7328   45.2967 a3         1 CLA     -0.134000
     23 CMD        71.4658   54.7231   38.2994 a3         1 CLA     -0.141100
     24 C1         80.8705   53.7909   34.5239 a2         1 CLA      0.023000
     25 C1A        77.1425   56.8380   37.3718 ac         1 CLA     -0.015100
     26 C1B        78.3493   59.5761   40.6302 cr         1 CLA      0.054700
     27 C1C        74.7399   58.3076   42.9971 cn         1 CLA     -0.005600
     28 C1D        73.4104   56.0251   39.5007 ap         1 CLA     -0.047300
     29 O1A        80.1210   55.4777   32.4073 o2         1 CLA     -0.610800
     30 O1D        77.1899   53.7050   34.7238 o2         1 CLA     -0.558200
     31 C2         80.7140   53.2123   35.9332 c8         1 CLA     -0.325100
     32 C2A        78.4014   56.8531   36.5137 a1         1 CLA      0.098600
     33 C2B        79.0571   60.2780   41.7854 cb         1 CLA      0.088500
     34 C2C        73.5971   58.1391   43.8664 cb         1 CLA      0.053700
     35 C2D        72.8427   55.2695   38.4112 cb         1 CLA      0.058900
     36 O2A        80.4763   55.1202   34.6754 o1         1 CLA     -0.437200
     37 O2D        76.6460   53.0363   36.8457 o1         1 CLA     -0.357600
     38 C3         81.6199   52.3829   36.5142 c5         1 CLA      0.031200
     39 C3A        79.2940   57.9325   37.2184 a1         1 CLA      0.166800
     40 C3B        78.1194   60.1754   42.8527 cb         1 CLA      0.035000
     41 C3C        72.7000   57.3313   43.1902 cb         1 CLA     -0.089900
     42 C3D        73.8550   55.1784   37.4923 cb         1 CLA     -0.035900
     43 C4         81.4916   50.8599   36.6008 a3         1 CLA     -0.053300
     44 C4A        78.4750   58.2950   38.4381 ac         1 CLA      0.001800
     45 C4B        76.9756   59.3822   42.4656 cn         1 CLA     -0.020900
     46 C4C        73.2921   57.1160   41.7980 cr         1 CLA     -0.044400
     47 C4D        74.9535   55.9500   37.9806 c6         1 CLA     -0.046000
     48 C5         82.9577   52.9594   37.1527 a2         1 CLA     -0.070400
     49 C6         82.9658   53.0818   38.6780 a2         1 CLA      0.043900
     50 C7         84.1093   54.0005   39.0723 a2         1 CLA     -0.150000
     51 C8         83.9403   55.6043   38.7370 a1         1 CLA      0.064200
     52 C9         84.8702   55.9482   37.5196 a3         1 CLA     -0.259300
     53 C10        84.0155   56.5258   39.9867 a2         1 CLA     -0.071900
     54 C11        82.8883   56.3975   41.0847 a2         1 CLA      0.014500
     55 C12        83.0831   57.3949   42.2085 a2         1 CLA     -0.112100
     56 C13        84.0474   56.9322   43.3335 a1         1 CLA      0.089200
     57 C14        83.4606   55.9320   44.3044 a3         1 CLA     -0.239100
     58 C15        84.5863   58.1619   44.0933 a2         1 CLA     -0.102200
     59 C16        83.4881   59.0014   44.7242 a2         1 CLA      0.023900
     60 C17        84.0615   60.1664   45.5362 a2         1 CLA     -0.105700
     61 C18        83.0628   61.1741   46.0559 a1         1 CLA      0.206800
     62 C19        81.8994   60.5155   46.9593 a3         1 CLA     -0.280100
     63 C20        83.6912   62.2368   46.9716 a3         1 CLA     -0.280100
     64 NC         74.5497   57.7018   41.7915 nx         1 CLA     -0.309200
     65 MG         75.8125   57.8567   40.0575 mg         1 CLA      0.895000
     66 HMD3       71.4101   54.0066   37.4706 dc         1 CLA      0.064300
     67 HMD2       71.3483   54.0811   39.0960 dc         1 CLA      0.064300
     68 HMD1       70.6863   55.4241   38.2307 dc         1 CLA      0.064300
     69 HMC3       72.7664   58.3340   45.9379 dc         1 CLA      0.052100
     70 HMC2       74.4872   58.5236   45.7645 dc         1 CLA      0.052100
     71 HMC1       73.3744   59.7695   45.1036 dc         1 CLA      0.052100
     72 HMB3       80.9931   60.3367   41.0752 dc         1 CLA      0.063600
     73 HMB2       80.2658   61.9050   41.3246 dc         1 CLA      0.063600
     74 HMB1       80.7632   61.0090   42.7637 dc         1 CLA      0.063600
     75 HMA3       80.6311   56.5096   38.1860 dc         1 CLA      0.058300
     76 HMA2       81.1073   56.9850   36.6368 dc         1 CLA      0.058300
     77 HMA1       81.3687   58.1581   38.0413 dc         1 CLA      0.058300
     78 HED3       76.9738   51.1982   37.6023 dc         1 CLA      0.079300
     79 HED2       76.9438   51.2889   35.8669 dc         1 CLA      0.079300
     80 HED1       78.3482   51.9340   36.7387 dc         1 CLA      0.079300
     81 HBC3       70.3323   54.7657   43.9732 dc         1 CLA      0.016300
     82 HBC2       71.7644   54.7753   42.9272 dc         1 CLA      0.016300
     83 HBC1       71.9385   54.7720   44.6159 dc         1 CLA      0.016300
     84 HBB2       78.4217   60.7347   46.3244 da         1 CLA      0.183000
     85 HBB1       77.8148   59.1953   45.4928 da         1 CLA      0.183000
     86 HBA2       79.2417   57.8226   33.2318 dc         1 CLA      0.029400
     87 HBA1       80.2309   57.6378   34.5932 dc         1 CLA      0.029400
     88 HAC2       71.0717   57.1683   44.6597 dc         1 CLA      0.029300
     89 HAC1       70.5978   56.9430   42.9795 dc         1 CLA      0.029300
     90 HAA2       77.4591   56.6689   34.6356 dc         1 CLA      0.028700
     91 HAA1       77.9535   58.3015   35.0703 dc         1 CLA      0.028700
     92 H203       83.7156   61.9574   48.0396 dc         1 CLA      0.065600
     93 H202       84.7382   62.5481   46.6417 dc         1 CLA      0.065600
     94 H201       83.0952   63.1107   46.8686 dc         1 CLA      0.065600
     95 H193       82.3583   60.1981   47.8813 dc         1 CLA      0.065600
     96 H192       81.0989   61.2208   46.9455 dc         1 CLA      0.065600
     97 H191       81.4787   59.5447   46.5621 dc         1 CLA      0.065600
     98 H172       84.6710   59.7848   46.3471 dc         1 CLA      0.027600
     99 H171       84.7114   60.6331   44.7856 dc         1 CLA      0.027600
    100 H162       82.7656   59.4234   44.0659 dc         1 CLA      0.002900
    101 H161       82.9411   58.3573   45.4562 dc         1 CLA      0.002900
    102 H152       85.3576   57.8720   44.8268 dc         1 CLA      0.029100
    103 H151       85.0654   58.7829   43.3452 dc         1 CLA      0.029100
    104 H143       83.1650   55.0081   43.7628 dc         1 CLA      0.063600
    105 H142       84.2226   55.5477   45.0250 dc         1 CLA      0.063600
    106 H141       82.5969   56.3117   44.8027 dc         1 CLA      0.063600
    107 H122       83.3763   58.3280   41.8415 dc         1 CLA      0.032500
    108 H121       82.1148   57.5819   42.6087 dc         1 CLA      0.032500
    109 H112       81.9203   56.5944   40.4546 dc         1 CLA      0.006600
    110 H111       82.8896   55.3674   41.3983 dc         1 CLA      0.006600
    111 H102       84.9942   56.3522   40.4721 dc         1 CLA      0.024100
    112 H101       83.9066   57.5859   39.6524 dc         1 CLA      0.024100
    113 HHD        71.8844   55.7316   40.8574 da         1 CLA      0.174300
    114 HHC        75.8571   59.5586   44.2076 da         1 CLA      0.136800
    115 HHB        79.9359   59.6532   39.0155 da         1 CLA      0.138300
    116 HBD        75.4849   55.6141   35.0355 dc         1 CLA      0.107700
    117 HAB        78.7936   61.8185   44.1913 da         1 CLA      0.155200
    118 H93        84.6569   55.4047   36.6286 dc         1 CLA      0.069500
    119 H92        84.7720   57.0281   37.3237 dc         1 CLA      0.069500
    120 H91        85.8937   55.7118   37.7975 dc         1 CLA      0.069500
    121 H8         82.9026   55.7681   38.4900 dc         1 CLA      0.029300
    122 H72        83.9992   53.9385   40.1673 dc         1 CLA      0.044400
    123 H71        85.0854   53.6171   38.8130 dc         1 CLA      0.044400
    124 H62        82.0424   53.4864   38.9997 dc         1 CLA      0.015600
    125 H61        82.9211   52.1539   39.1438 dc         1 CLA      0.015600
    126 H52        83.7964   52.3628   36.9174 dc         1 CLA      0.033200
    127 H51        83.1828   53.9264   36.6973 dc         1 CLA      0.033200
    128 H43        81.5432   50.4478   37.6370 dc         1 CLA      0.037000
    129 H42        80.5891   50.6359   36.0630 dc         1 CLA      0.037000
    130 H41        82.2047   50.4955   35.8579 dc         1 CLA      0.037000
    131 H3A        79.4905   58.8758   36.6712 dc         1 CLA      0.041100
    132 H2A        78.8756   55.9043   36.5807 dc         1 CLA      0.083100
    133 H2         79.9198   53.7740   36.5050 da         1 CLA      0.180900
    134 H18        82.5658   61.6007   45.1379 dc         1 CLA     -0.003900
    135 H13        84.9112   56.4618   42.9421 dc         1 CLA      0.019700
    136 H12        80.2543   53.2267   33.7401 dc         1 CLA      0.120400
    137 H11        81.8787   53.7328   34.1626 dc         1 CLA      0.120400
    138 C1         68.0984   60.5356   50.0472 Z1         2 LUT      0.509236
    139 C2         66.7887   60.5852   50.9310 Z2         2 LUT     -0.434695
    140 C3         66.1326   61.9918   51.2991 Z3         2 LUT      0.437453
    141 O3         66.5228   62.4485   52.6257 S1         2 LUT     -0.547129
    142 C4         66.3310   63.0091   50.2930 Z4         2 LUT     -0.468603
    143 C5         66.9568   62.6130   48.9361 Z5         2 LUT      0.279246
    144 C6         67.7489   61.5020   48.7889 Z6         2 LUT     -0.305473
    145 C7         68.1166   60.8477   47.5131 Z7         2 LUT      0.069402
    146 C8         69.0940   61.4132   46.7566 Z8         2 LUT     -0.191631
    147 C9         69.5130   61.0114   45.3904 Z9         2 LUT      0.196698
    148 C10        70.5610   61.7695   44.7979 Y1         2 LUT     -0.208611
    149 C11        71.1829   61.5869   43.5168 Y2         2 LUT      0.030784
    150 C12        72.2921   62.2800   43.1619 Y3         2 LUT     -0.220316
    151 C13        73.1497   62.1952   42.0467 Y4         2 LUT      0.215937
    152 C14        74.3792   62.8824   42.1057 Y5         2 LUT     -0.185793
    153 C15        75.5447   62.8078   41.2487 Y6         2 LUT     -0.057835
    154 C16        68.5709   59.0930   49.9164 Y7         2 LUT     -0.405615
    155 C17        69.1795   61.2625   50.8975 Y7         2 LUT     -0.405615
    156 C18        66.4078   63.3661   47.8190 Y9         2 LUT     -0.369639
    157 C19        69.0210   59.7265   44.7568 W1         2 LUT     -0.333362
    158 C20        73.0846   61.0250   41.1346 W2         2 LUT     -0.323439
    159 C21        86.8806   64.4274   35.3444 Z1         2 LUT      0.406104
    160 C22        87.7845   63.9794   34.1980 Z2         2 LUT     -0.404965
    161 C23        88.0155   65.0863   33.1994 Z3         2 LUT      0.391255
    162 O23        88.8272   64.5427   32.1951 S1         2 LUT     -0.528210
    163 C24        86.7309   65.8497   32.8990 W6         2 LUT     -0.258361
    164 C25        85.5650   65.8045   33.5649 Z5         2 LUT      0.133546
    165 C26        85.4941   65.0311   34.8451 W8         2 LUT     -0.147008
    166 C27        84.6782   65.6393   35.9826 Z7         2 LUT      0.023843
    167 C28        83.7433   65.0081   36.6291 Z8         2 LUT     -0.216987
    168 C29        82.9270   65.4502   37.7191 Z9         2 LUT      0.206524
    169 C30        81.9077   64.6855   38.1844 Y1         2 LUT     -0.215556
    170 C31        81.0849   64.9059   39.3485 Y2         2 LUT      0.025142
    171 C32        79.9321   64.2858   39.5338 Y3         2 LUT     -0.212209
    172 C33        78.9214   64.3312   40.6154 Y4         2 LUT      0.240937
    173 C34        77.7535   63.5916   40.5155 Y5         2 LUT     -0.218862
    174 C35        76.6089   63.6238   41.4649 Y6         2 LUT     -0.023547
    175 C36        87.6146   65.5197   36.1195 Y7         2 LUT     -0.393485
    176 C37        86.8199   63.0943   36.1891 Y7         2 LUT     -0.393485
    177 C38        84.3743   66.6611   33.0182 Y9         2 LUT     -0.387526
    178 C39        83.2103   66.8133   38.4696 W1         2 LUT     -0.322618
    179 C40        79.2873   65.0593   41.9172 W2         2 LUT     -0.358472
    180 H403       79.5827   64.3844   42.7255 R7         2 LUT      0.097720
    181 H402       80.1610   65.5951   41.8723 R7         2 LUT      0.097720
    182 H401       78.6334   65.7798   42.3894 R7         2 LUT      0.097720
    183 H393       83.7693   66.7346   39.4130 R4         2 LUT      0.082505
    184 H392       83.7626   67.4347   37.8234 R4         2 LUT      0.082505
    185 H391       82.3216   67.3571   38.7879 R4         2 LUT      0.082505
    186 H383       83.7757   66.9193   33.9311 R1         2 LUT      0.104030
    187 H382       84.6149   67.7156   32.6530 R1         2 LUT      0.104030
    188 H381       83.7111   66.1704   32.3201 R1         2 LUT      0.104030
    189 H373       87.8350   62.8011   36.5537 T4         2 LUT      0.089537
    190 H372       86.1743   63.1192   37.1113 T4         2 LUT      0.089537
    191 H371       86.3147   62.2733   35.6166 T4         2 LUT      0.089537
    192 H363       87.1304   65.6914   37.1292 T4         2 LUT      0.089537
    193 H362       88.6947   65.3483   36.3114 T4         2 LUT      0.089537
    194 H361       87.5606   66.3850   35.5211 T4         2 LUT      0.089537
    195 H222       88.7383   63.6817   34.6359 U2         2 LUT      0.127376
    196 H221       87.3427   63.1433   33.6790 U2         2 LUT      0.127376
    197 H203       72.3727   60.2353   41.3847 R7         2 LUT      0.087068
    198 H202       72.7871   61.3237   40.1252 R7         2 LUT      0.087068
    199 H201       73.9960   60.4852   41.0193 R7         2 LUT      0.087068
    200 H193       69.7070   59.3595   44.0543 R4         2 LUT      0.089716
    201 H192       68.7722   58.9457   45.4748 R4         2 LUT      0.089716
    202 H191       68.0490   59.9185   44.2253 R4         2 LUT      0.089716
    203 H183       66.5209   64.4271   48.1094 R1         2 LUT      0.094572
    204 H182       66.9391   63.1079   46.8856 R1         2 LUT      0.094572
    205 H181       65.3481   63.1927   47.7178 R1         2 LUT      0.094572
    206 H173       69.4622   60.7190   51.8083 T4         2 LUT      0.093752
    207 H172       70.1118   61.3729   50.3090 T4         2 LUT      0.093752
    208 H171       68.9598   62.2657   51.2343 T4         2 LUT      0.093752
    209 H163       68.6503   58.4384   50.7847 T4         2 LUT      0.093752
    210 H162       67.9708   58.4886   49.1734 T4         2 LUT      0.093752
    211 H161       69.6883   59.0323   49.7457 T4         2 LUT      0.093752
    212 HO3        66.0908   61.9260   53.2709 Q1         2 LUT      0.300121
    213 H8         69.6462   62.2973   47.2057 U7         2 LUT      0.080784
    214 H7         67.5218   60.0235   47.1124 U6         2 LUT      0.042190
    215 H42        65.3032   63.4034   50.1028 U5         2 LUT      0.145166
    216 H41        66.7931   63.8894   50.7521 U5         2 LUT      0.145166
    217 H35        76.5678   64.2847   42.3742 T3         2 LUT      0.077919
    218 H34        77.4990   63.0884   39.5596 T2         2 LUT      0.073626
    219 H32        79.6111   63.6959   38.6536 T1         2 LUT      0.092510
    220 H31        81.5076   65.6791   40.0879 U9         2 LUT      0.070048
    221 H30        81.7754   63.7620   37.6500 U8         2 LUT      0.085442
    222 H3         65.0610   61.7363   51.2781 U3         2 LUT     -0.031596
    223 H28        83.4955   64.0255   36.3475 U7         2 LUT      0.084728
    224 H27        84.9152   66.6379   36.1526 U6         2 LUT      0.087291
    225 H26        84.9176   64.2100   34.4428 Q6         2 LUT      0.075325
    226 H24        86.8389   66.4413   32.0030 Q5         2 LUT      0.094482
    227 H23        88.5651   65.8400   33.6866 U3         2 LUT     -0.024869
    228 H22        65.9455   59.9028   50.6133 U2         2 LUT      0.127376
    229 H21        67.0610   60.0923   51.8348 U2         2 LUT      0.127376
    230 H15        75.5360   62.2351   40.3312 T3         2 LUT      0.093200
    231 H14        74.4521   63.4975   42.9332 T2         2 LUT      0.068865
    232 H12        72.7603   62.9583   43.9600 T1         2 LUT      0.095507
    233 H11        70.7610   60.8604   42.8237 U9         2 LUT      0.068930
    234 H10        70.8073   62.7253   45.3320 U8         2 LUT      0.083911
    235 H1         88.2815   64.3168   31.4209 Q1         2 LUT      0.297311
@<TRIPOS>BOND
    1     6     1 1
    2     7     2 1
    3     8     3 1
    4     9     4 1
    5    11     4 1
    6    12     6 1
    7    13     9 1
    8    16     9 1
    9    25     5 1
   10    25    16 1
   11    26    10 1
   12    26    17 1
   13    27    18 1
   14    28    14 1
   15    28    19 1
   16    29    12 1
   17    30    13 1
   18    31    24 1
   19    32     1 1
   20    32    25 1
   21    33    21 1
   22    33    26 1
   23    34    22 1
   24    34    27 1
   25    35    23 1
   26    35    28 1
   27    36    12 1
   28    36    24 1
   29    37    13 1
   30    37    15 1
   31    38    31 1
   32    39    20 1
   33    39    32 1
   34    40     2 1
   35    40    33 1
   36    41     3 1
   37    41    34 1
   38    42     4 1
   39    42    35 1
   40    43    38 1
   41    44     5 1
   42    44    17 1
   43    44    39 1
   44    45    10 1
   45    45    18 1
   46    45    40 1
   47    46    19 1
   48    46    41 1
   49    47    14 1
   50    47    16 1
   51    47    42 1
   52    48    38 1
   53    49    48 1
   54    50    49 1
   55    51    50 1
   56    52    51 1
   57    53    51 1
   58    54    53 1
   59    55    54 1
   60    56    55 1
   61    57    56 1
   62    58    56 1
   63    59    58 1
   64    60    59 1
   65    61    60 1
   66    62    61 1
   67    63    61 1
   68    64    27 1
   69    64    46 1
   70    65     5 1
   71    65    10 1
   72    65    64 1
   73    65    14 1
   74    66    23 1
   75    67    23 1
   76    68    23 1
   77    69    22 1
   78    70    22 1
   79    71    22 1
   80    72    21 1
   81    73    21 1
   82    74    21 1
   83    75    20 1
   84    76    20 1
   85    77    20 1
   86    78    15 1
   87    79    15 1
   88    80    15 1
   89    81     8 1
   90    82     8 1
   91    83     8 1
   92    84     7 1
   93    85     7 1
   94    86     6 1
   95    87     6 1
   96    88     3 1
   97    89     3 1
   98    90     1 1
   99    91     1 1
  100    92    63 1
  101    93    63 1
  102    94    63 1
  103    95    62 1
  104    96    62 1
  105    97    62 1
  106    98    60 1
  107    99    60 1
  108   100    59 1
  109   101    59 1
  110   102    58 1
  111   103    58 1
  112   104    57 1
  113   105    57 1
  114   106    57 1
  115   107    55 1
  116   108    55 1
  117   109    54 1
  118   110    54 1
  119   111    53 1
  120   112    53 1
  121   113    19 1
  122   114    18 1
  123   115    17 1
  124   116     9 1
  125   117     2 1
  126   118    52 1
  127   119    52 1
  128   120    52 1
  129   121    51 1
  130   122    50 1
  131   123    50 1
  132   124    49 1
  133   125    49 1
  134   126    48 1
  135   127    48 1
  136   128    43 1
  137   129    43 1
  138   130    43 1
  139   131    39 1
  140   132    32 1
  141   133    31 1
  142   134    61 1
  143   135    56 1
  144   136    24 1
  145   137    24 1
  146   139   138 1
  147   140   139 1
  148   141   140 1
  149   142   140 1
  150   143   142 1
  151   144   138 1
  152   144   143 1
  153   145   144 1
  154   146   145 1
  155   147   146 1
  156   148   147 1
  157   149   148 1
  158   150   149 1
  159   151   150 1
  160   152   151 1
  161   153   152 1
  162   154   138 1
  163   155   138 1
  164   156   143 1
  165   157   147 1
  166   158   151 1
  167   160   159 1
  168   161   160 1
  169   162   161 1
  170   163   161 1
  171   164   163 1
  172   165   159 1
  173   165   164 1
  174   166   165 1
  175   167   166 1
  176   168   167 1
  177   169   168 1
  178   170   169 1
  179   171   170 1
  180   172   171 1
  181   173   172 1
  182   174   153 1
  183   174   173 1
  184   175   159 1
  185   176   159 1
  186   177   164 1
  187   178   168 1
  188   179   172 1
  189   180   179 1
  190   181   179 1
  191   182   179 1
  192   183   178 1
  193   184   178 1
  194   185   178 1
  195   186   177 1
  196   187   177 1
  197   188   177 1
  198   189   176 1
  199   190   176 1
  200   191   176 1
  201   192   175 1
  202   193   175 1
  203   194   175 1
  204   195   160 1
  205   196   160 1
  206   197   158 1
  207   198   158 1
  208   199   158 1
  209   200   157 1
  210   201   157 1
  211   202   157 1
  212   203   156 1
  213   204   156 1
  214   205   156 1
  215   206   155 1
  216   207   155 1
  217   208   155 1
  218   209   154 1
  219   210   154 1
  220   211   154 1
  221   212   141 1
  222   213   146 1
  223   214   145 1
  224   215   142 1
  225   216   142 1
  226   217   174 1
  227   218   173 1
  228   219   171 1
  229   220   170 1
  230   221   169 1
  231   222   140 1
  232   223   167 1
  233   224   166 1
  234   225   165 1
  235   226   163 1
  236   227   161 1
  237   228   139 1
  238   229   139 1
  239   230   153 1
  240   231   152 1
  241   232   150 1
  242   233   149 1
  243   234   148 1
  244   235   162 1
  245   65    153 1
  246   65    174 1
@<TRIPOS>SUBSTRUCTURE
      1 CLA               1 ****               0 ****  **** 
      2 LUT             138 ****               0 ****  **** 
