@<TRIPOS>MOLECULE
Cpptraj generated mol2 file.
  235   246     2     0     0
SMALL
USER_CHARGES


@<TRIPOS>ATOM
      1 CAA        77.6925   58.2670   34.0624 a2         1 CLA     -0.055900
      2 CAB        77.8098   62.1517   43.0479 c8         1 CLA     -0.148500
      3 CAC        71.1149   57.5569   43.0283 a2         1 CLA     -0.012600
      4 CAD        73.4807   55.4294   35.6155 ck         1 CLA      0.398800
      5 NA         76.6777   58.7484   37.4774 ns         1 CLA     -0.225500
      6 CBA        78.9328   58.0722   33.1815 a2         1 CLA     -0.135000
      7 CBB        78.9086   62.2149   43.8340 c0         1 CLA     -0.395200
      8 CBC        71.4835   56.0197   42.8539 a3         1 CLA     -0.037700
      9 CBD        74.9061   56.0681   35.2011 a1         1 CLA     -0.053900
     10 NB         76.6104   60.2422   40.1550 nm         1 CLA     -0.295700
     11 OBD        72.8330   54.6388   34.8981 o2         1 CLA     -0.494600
     12 CGA        79.1452   56.5719   32.9027 c4         1 CLA      0.827000
     13 CGD        75.9213   55.0365   34.7158 c4         1 CLA      0.655300
     14 ND         73.9774   57.6103   38.3561 nm         1 CLA     -0.291600
     15 CED        76.8695   52.8790   35.1894 a3         1 CLA      0.005400
     16 CHA        75.3672   57.0379   36.3303 cs         1 CLA     -0.123800
     17 CHB        78.5839   60.0223   38.5684 aa         1 CLA     -0.291900
     18 CHC        75.3076   60.4366   42.2970 aa         1 CLA     -0.090400
     19 CHD        72.2109   57.4744   40.0101 aa         1 CLA     -0.052000
     20 CMA        80.0010   57.8082   36.8659 a3         1 CLA     -0.230700
     21 CMB        79.8621   61.8346   40.6504 a3         1 CLA     -0.180800
     22 CMC        73.1381   59.5551   44.4811 a3         1 CLA     -0.134000
     23 CMD        71.0431   55.2324   38.2074 a3         1 CLA     -0.141100
     24 C1         79.9661   54.4809   33.7754 a2         1 CLA      0.023000
     25 C1A        76.4877   57.8472   36.4573 ac         1 CLA     -0.015100
     26 C1B        77.9470   60.4670   39.7618 cr         1 CLA      0.054700
     27 C1C        74.2065   59.5498   42.0635 cn         1 CLA     -0.005600
     28 C1D        72.7491   57.1087   38.8049 ap         1 CLA     -0.047300
     29 O1A        78.8464   55.9849   31.8657 o2         1 CLA     -0.610800
     30 O1D        76.7251   55.1502   33.8235 o2         1 CLA     -0.558200
     31 C2         80.4114   53.8799   35.0572 c8         1 CLA     -0.325100
     32 C2A        77.7295   57.8061   35.5626 a1         1 CLA      0.098600
     33 C2B        78.5366   61.2203   40.7716 cb         1 CLA      0.088500
     34 C2C        73.1534   59.1822   43.0149 cb         1 CLA      0.053700
     35 C2D        72.2685   56.0583   37.9409 cb         1 CLA      0.058900
     36 O2A        79.7698   55.9442   33.9210 o1         1 CLA     -0.437200
     37 O2D        75.8755   53.9583   35.4675 o1         1 CLA     -0.357600
     38 C3         81.1114   52.7287   35.3237 c5         1 CLA      0.031200
     39 C3A        78.7749   58.6480   36.3637 a1         1 CLA      0.166800
     40 C3B        77.6407   61.3648   41.8068 cb         1 CLA      0.035000
     41 C3C        72.2425   58.3515   42.3881 cb         1 CLA     -0.089900
     42 C3D        73.1827   56.0461   36.9059 cb         1 CLA     -0.035900
     43 C4         80.4638   51.3540   35.4510 a3         1 CLA     -0.053300
     44 C4A        77.9754   59.2570   37.5614 ac         1 CLA      0.001800
     45 C4B        76.4403   60.6542   41.4329 cn         1 CLA     -0.020900
     46 C4C        72.7438   58.2121   41.0490 cr         1 CLA     -0.044400
     47 C4D        74.2253   57.0050   37.1403 c6         1 CLA     -0.046000
     48 C5         82.6202   52.7486   35.5152 a2         1 CLA     -0.070400
     49 C6         83.3090   54.0837   35.7859 a2         1 CLA      0.043900
     50 C7         83.3179   54.4361   37.2617 a2         1 CLA     -0.150000
     51 C8         83.9037   55.8340   37.5900 a1         1 CLA      0.064200
     52 C9         85.4029   55.9007   37.1732 a3         1 CLA     -0.259300
     53 C10        83.8028   56.2442   39.0725 a2         1 CLA     -0.071900
     54 C11        82.4399   56.1979   39.7729 a2         1 CLA      0.014500
     55 C12        82.5720   56.8103   41.1886 a2         1 CLA     -0.112100
     56 C13        81.2486   57.0131   42.0438 a1         1 CLA      0.089200
     57 C14        80.2615   57.9924   41.4777 a3         1 CLA     -0.239100
     58 C15        81.5754   57.3222   43.5107 a2         1 CLA     -0.102200
     59 C16        82.2902   58.7569   43.8041 a2         1 CLA      0.023900
     60 C17        82.1030   58.9423   45.3462 a2         1 CLA     -0.105700
     61 C18        82.8928   60.1232   45.9825 a1         1 CLA      0.206800
     62 C19        84.4535   60.1126   45.8012 a3         1 CLA     -0.280100
     63 C20        82.3265   61.5218   45.5988 a3         1 CLA     -0.280100
     64 NC         73.9784   58.8448   40.9129 nx         1 CLA     -0.309200
     65 MG         75.2272   59.0669   39.1365 mg         1 CLA      0.895000
     66 HMD3       70.8033   54.5093   37.4059 dc         1 CLA      0.064300
     67 HMD2       71.2071   54.6766   39.1557 dc         1 CLA      0.064300
     68 HMD1       70.2156   55.8916   38.3274 dc         1 CLA      0.064300
     69 HMC3       73.0013   58.6714   45.1520 dc         1 CLA      0.052100
     70 HMC2       74.1122   59.9952   44.6781 dc         1 CLA      0.052100
     71 HMC1       72.3660   60.3236   44.6469 dc         1 CLA      0.052100
     72 HMB3       80.6049   61.0614   40.8806 dc         1 CLA      0.063600
     73 HMB2       80.1417   62.1910   39.6839 dc         1 CLA      0.063600
     74 HMB1       79.8966   62.6942   41.3188 dc         1 CLA      0.063600
     75 HMA3       80.5795   58.5377   37.4992 dc         1 CLA      0.058300
     76 HMA2       79.7353   56.9409   37.5326 dc         1 CLA      0.058300
     77 HMA1       80.6630   57.4607   36.0510 dc         1 CLA      0.058300
     78 HED3       76.7086   52.0977   35.8763 dc         1 CLA      0.079300
     79 HED2       76.8966   52.4715   34.1746 dc         1 CLA      0.079300
     80 HED1       77.8211   53.3051   35.5044 dc         1 CLA      0.079300
     81 HBC3       71.2247   55.6471   41.8188 dc         1 CLA      0.016300
     82 HBC2       72.5498   55.8226   43.0440 dc         1 CLA      0.016300
     83 HBC1       70.8184   55.4737   43.6055 dc         1 CLA      0.016300
     84 HBB2       78.8500   62.5677   44.9039 da         1 CLA      0.183000
     85 HBB1       79.7575   61.5042   43.6231 da         1 CLA      0.183000
     86 HBA2       78.6209   58.5239   32.2009 dc         1 CLA      0.029400
     87 HBA1       79.8000   58.5859   33.5431 dc         1 CLA      0.029400
     88 HAC2       71.0617   57.7535   44.1094 dc         1 CLA      0.029300
     89 HAC1       70.1782   57.6972   42.5873 dc         1 CLA      0.029300
     90 HAA2       76.7467   57.8429   33.6967 dc         1 CLA      0.028700
     91 HAA1       77.4977   59.3679   34.0303 dc         1 CLA      0.028700
     92 H203       82.9779   62.1489   46.1981 dc         1 CLA      0.065600
     93 H202       82.1745   61.7452   44.5185 dc         1 CLA      0.065600
     94 H201       81.3597   61.6611   45.9759 dc         1 CLA      0.065600
     95 H193       84.8863   60.6390   46.6503 dc         1 CLA      0.065600
     96 H192       84.7973   59.0911   46.0393 dc         1 CLA      0.065600
     97 H191       84.8308   60.3498   44.8665 dc         1 CLA      0.065600
     98 H172       81.0488   59.0728   45.4918 dc         1 CLA      0.027600
     99 H171       82.3635   58.0088   45.9462 dc         1 CLA      0.027600
    100 H162       83.3809   58.6818   43.5807 dc         1 CLA      0.002900
    101 H161       81.7933   59.5740   43.3595 dc         1 CLA      0.002900
    102 H152       80.6026   57.3130   43.8974 dc         1 CLA      0.029100
    103 H151       82.1741   56.5241   43.9727 dc         1 CLA      0.029100
    104 H143       80.8415   58.9356   41.3124 dc         1 CLA      0.063600
    105 H142       79.8671   57.4784   40.6353 dc         1 CLA      0.063600
    106 H141       79.5370   58.2563   42.2716 dc         1 CLA      0.063600
    107 H122       83.1787   56.1568   41.7058 dc         1 CLA      0.032500
    108 H121       83.1032   57.7709   41.1354 dc         1 CLA      0.032500
    109 H112       81.7406   56.8643   39.2363 dc         1 CLA      0.006600
    110 H111       82.0217   55.1908   39.9165 dc         1 CLA      0.006600
    111 H102       84.5690   55.6975   39.6212 dc         1 CLA      0.024100
    112 H101       84.2232   57.2619   39.1195 dc         1 CLA      0.024100
    113 HHD        71.1825   57.1264   40.2301 da         1 CLA      0.174300
    114 HHC        75.3347   61.0242   43.1848 da         1 CLA      0.136800
    115 HHB        79.6393   60.1984   38.3072 da         1 CLA      0.138300
    116 HBD        74.7469   56.7010   34.3342 dc         1 CLA      0.107700
    117 HAB        76.8612   62.5678   43.4504 da         1 CLA      0.155200
    118 H93        85.7061   56.8784   37.6437 dc         1 CLA      0.069500
    119 H92        86.1251   55.0943   37.4726 dc         1 CLA      0.069500
    120 H91        85.4341   55.8219   36.0552 dc         1 CLA      0.069500
    121 H8         83.3938   56.6753   37.0177 dc         1 CLA      0.029300
    122 H72        82.2925   54.3925   37.5231 dc         1 CLA      0.044400
    123 H71        83.8348   53.6497   37.7706 dc         1 CLA      0.044400
    124 H62        84.3813   53.8771   35.4832 dc         1 CLA      0.015600
    125 H61        82.9510   54.9789   35.2284 dc         1 CLA      0.015600
    126 H52        82.9480   51.9705   36.1615 dc         1 CLA      0.033200
    127 H51        82.8305   52.3404   34.5381 dc         1 CLA      0.033200
    128 H43        79.4016   51.4813   35.2505 dc         1 CLA      0.037000
    129 H42        80.9621   50.6801   34.7188 dc         1 CLA      0.037000
    130 H41        80.5484   50.8709   36.3815 dc         1 CLA      0.037000
    131 H3A        79.1813   59.5305   35.8677 dc         1 CLA      0.041100
    132 H2A        77.9984   56.7750   35.7067 dc         1 CLA      0.083100
    133 H2         79.9638   54.4763   35.8910 da         1 CLA      0.180900
    134 H18        82.6486   60.0104   47.0322 dc         1 CLA     -0.003900
    135 H13        80.8311   56.0611   42.1579 dc         1 CLA      0.019700
    136 H12        79.0175   54.0308   33.4971 dc         1 CLA      0.120400
    137 H11        80.6628   54.4103   32.9716 dc         1 CLA      0.120400
    138 C1         68.2008   61.8523   50.7593 Z1         2 LUT      0.509236
    139 C2         68.0599   63.0538   51.6469 Z2         2 LUT     -0.434695
    140 C3         66.6475   63.6731   51.6836 Z3         2 LUT      0.437453
    141 O3         66.8623   65.0950   52.0410 S1         2 LUT     -0.547129
    142 C4         65.9678   63.6162   50.3347 Z4         2 LUT     -0.468603
    143 C5         66.8228   63.0923   49.0835 Z5         2 LUT      0.279246
    144 C6         67.7592   62.1156   49.2732 Z6         2 LUT     -0.305473
    145 C7         68.6754   61.6219   48.2048 Z7         2 LUT      0.069402
    146 C8         69.3582   62.3212   47.3186 Z8         2 LUT     -0.191631
    147 C9         69.8101   61.9981   45.9769 Z9         2 LUT      0.196698
    148 C10        70.7700   62.7810   45.3713 Y1         2 LUT     -0.208611
    149 C11        71.3170   62.7223   44.0756 Y2         2 LUT      0.030784
    150 C12        72.3449   63.4734   43.6625 Y3         2 LUT     -0.220316
    151 C13        73.1214   63.4055   42.4085 Y4         2 LUT      0.215937
    152 C14        74.3863   63.9499   42.3112 Y5         2 LUT     -0.185793
    153 C15        75.4152   63.8436   41.3436 Y6         2 LUT     -0.057835
    154 C16        67.3240   60.6254   51.2795 Y7         2 LUT     -0.405615
    155 C17        69.6389   61.2572   50.8825 Y7         2 LUT     -0.405615
    156 C18        66.5321   63.8050   47.8127 Y9         2 LUT     -0.369639
    157 C19        69.2449   60.7490   45.2634 W1         2 LUT     -0.333362
    158 C20        72.4081   62.6735   41.3255 W2         2 LUT     -0.323439
    159 C21        86.6995   65.5673   35.3733 Z1         2 LUT      0.406104
    160 C22        87.4175   65.0605   34.1652 Z2         2 LUT     -0.404965
    161 C23        87.5897   66.0801   33.0200 Z3         2 LUT      0.391255
    162 O23        88.3145   65.3055   32.0161 S1         2 LUT     -0.528210
    163 C24        86.2473   66.6930   32.6491 W6         2 LUT     -0.258361
    164 C25        85.1891   66.7295   33.5172 Z5         2 LUT      0.133546
    165 C26        85.2750   66.0291   34.9181 W8         2 LUT     -0.147008
    166 C27        84.4972   66.7057   35.9848 Z7         2 LUT      0.023843
    167 C28        83.5435   66.1460   36.8094 Z8         2 LUT     -0.216987
    168 C29        82.8910   66.5830   37.9708 Z9         2 LUT      0.206524
    169 C30        81.7822   65.8745   38.2811 Y1         2 LUT     -0.215556
    170 C31        80.9532   65.9264   39.4367 Y2         2 LUT      0.025142
    171 C32        79.6947   65.3129   39.5127 Y3         2 LUT     -0.212209
    172 C33        78.7276   65.3069   40.5801 Y4         2 LUT      0.240937
    173 C34        77.5586   64.6361   40.5676 Y5         2 LUT     -0.218862
    174 C35        76.5219   64.5834   41.5760 Y6         2 LUT     -0.023547
    175 C36        87.4907   66.7279   35.9729 Y7         2 LUT     -0.393485
    176 C37        86.7305   64.5743   36.5478 Y7         2 LUT     -0.393485
    177 C38        83.7543   67.2641   33.2015 Y9         2 LUT     -0.387526
    178 C39        83.5324   67.7346   38.7692 W1         2 LUT     -0.322618
    179 C40        79.1275   66.2023   41.8170 W2         2 LUT     -0.358472
    180 H403       78.4155   66.2208   42.6179 R7         2 LUT      0.097720
    181 H402       80.0972   65.9294   42.3791 R7         2 LUT      0.097720
    182 H401       79.2109   67.2981   41.4932 R7         2 LUT      0.097720
    183 H393       82.7696   68.4112   39.1323 R4         2 LUT      0.082505
    184 H392       83.9582   67.3174   39.6685 R4         2 LUT      0.082505
    185 H391       84.2856   68.3170   38.2565 R4         2 LUT      0.082505
    186 H383       83.5394   67.3187   32.0862 R1         2 LUT      0.104030
    187 H382       82.9924   66.5628   33.5899 R1         2 LUT      0.104030
    188 H381       83.5993   68.3088   33.6710 R1         2 LUT      0.104030
    189 H373       86.2556   63.6610   36.2316 T4         2 LUT      0.089537
    190 H372       87.7424   64.4028   36.9555 T4         2 LUT      0.089537
    191 H371       86.0849   64.9077   37.3567 T4         2 LUT      0.089537
    192 H363       88.4727   66.3528   36.3620 T4         2 LUT      0.089537
    193 H362       87.7337   67.6095   35.3348 T4         2 LUT      0.089537
    194 H361       87.0185   67.1755   36.7904 T4         2 LUT      0.089537
    195 H222       88.4220   64.5887   34.3899 U2         2 LUT      0.127376
    196 H221       86.9138   64.1615   33.8208 U2         2 LUT      0.127376
    197 H203       71.4206   63.1911   41.2003 R7         2 LUT      0.087068
    198 H202       72.9259   62.6364   40.3873 R7         2 LUT      0.087068
    199 H201       72.2825   61.5998   41.6618 R7         2 LUT      0.087068
    200 H193       69.0799   60.9252   44.2161 R4         2 LUT      0.089716
    201 H192       69.9536   59.9937   45.4528 R4         2 LUT      0.089716
    202 H191       68.3749   60.4331   45.7421 R4         2 LUT      0.089716
    203 H183       65.6432   64.3935   47.9077 R1         2 LUT      0.094572
    204 H182       67.3553   64.5668   47.6666 R1         2 LUT      0.094572
    205 H181       66.4345   63.1532   46.8741 R1         2 LUT      0.094572
    206 H173       69.9069   61.0009   51.8894 T4         2 LUT      0.093752
    207 H172       69.7560   60.3727   50.3287 T4         2 LUT      0.093752
    208 H171       70.2566   62.0157   50.4483 T4         2 LUT      0.093752
    209 H163       66.2974   60.9846   51.2397 T4         2 LUT      0.093752
    210 H162       67.4283   59.6931   50.7250 T4         2 LUT      0.093752
    211 H161       67.4548   60.2588   52.3267 T4         2 LUT      0.093752
    212 HO3        66.2683   65.3819   52.6888 Q1         2 LUT      0.300121
    213 H8         69.5073   63.3741   47.5798 U7         2 LUT      0.080784
    214 H7         68.5020   60.6316   47.8834 U6         2 LUT      0.042190
    215 H42        65.1417   62.9362   50.4378 U5         2 LUT      0.145166
    216 H41        65.3725   64.5713   50.1991 U5         2 LUT      0.145166
    217 H35        76.6127   65.2353   42.4964 T3         2 LUT      0.077919
    218 H34        77.2747   64.1142   39.5762 T2         2 LUT      0.073626
    219 H32        79.3693   64.7978   38.6267 T1         2 LUT      0.092510
    220 H31        81.3153   66.5554   40.2959 U9         2 LUT      0.070048
    221 H30        81.4340   65.1403   37.5641 U8         2 LUT      0.085442
    222 H3         66.1031   63.1799   52.4604 U3         2 LUT     -0.031596
    223 H28        83.3116   65.1254   36.4376 U7         2 LUT      0.084728
    224 H27        84.8387   67.7687   36.0611 U6         2 LUT      0.087291
    225 H26        84.8333   65.1060   34.6812 Q6         2 LUT      0.075325
    226 H24        86.0282   67.1750   31.6620 Q5         2 LUT      0.094482
    227 H23        88.2692   66.8354   33.3334 U3         2 LUT     -0.024869
    228 H22        68.3391   62.8653   52.7032 U2         2 LUT      0.127376
    229 H21        68.6519   63.8768   51.3180 U2         2 LUT      0.127376
    230 H15        75.2948   63.2665   40.4771 T3         2 LUT      0.093200
    231 H14        74.7080   64.3422   43.2518 T2         2 LUT      0.068865
    232 H12        72.8964   64.0543   44.3637 T1         2 LUT      0.095507
    233 H11        70.7406   62.0688   43.4433 U9         2 LUT      0.068930
    234 H10        71.0947   63.5527   46.0262 U8         2 LUT      0.083911
    235 H1         87.8186   65.1158   31.1815 Q1         2 LUT      0.297311
@<TRIPOS>BOND
    1     6     1 1
    2     7     2 1
    3     8     3 1
    4     9     4 1
    5    11     4 1
    6    12     6 1
    7    13     9 1
    8    16     9 1
    9    25     5 1
   10    25    16 1
   11    26    10 1
   12    26    17 1
   13    27    18 1
   14    28    14 1
   15    28    19 1
   16    29    12 1
   17    30    13 1
   18    31    24 1
   19    32     1 1
   20    32    25 1
   21    33    21 1
   22    33    26 1
   23    34    22 1
   24    34    27 1
   25    35    23 1
   26    35    28 1
   27    36    12 1
   28    36    24 1
   29    37    13 1
   30    37    15 1
   31    38    31 1
   32    39    20 1
   33    39    32 1
   34    40     2 1
   35    40    33 1
   36    41     3 1
   37    41    34 1
   38    42     4 1
   39    42    35 1
   40    43    38 1
   41    44     5 1
   42    44    17 1
   43    44    39 1
   44    45    10 1
   45    45    18 1
   46    45    40 1
   47    46    19 1
   48    46    41 1
   49    47    14 1
   50    47    16 1
   51    47    42 1
   52    48    38 1
   53    49    48 1
   54    50    49 1
   55    51    50 1
   56    52    51 1
   57    53    51 1
   58    54    53 1
   59    55    54 1
   60    56    55 1
   61    57    56 1
   62    58    56 1
   63    59    58 1
   64    60    59 1
   65    61    60 1
   66    62    61 1
   67    63    61 1
   68    64    27 1
   69    64    46 1
   70    65     5 1
   71    65    10 1
   72    65    64 1
   73    65    14 1
   74    66    23 1
   75    67    23 1
   76    68    23 1
   77    69    22 1
   78    70    22 1
   79    71    22 1
   80    72    21 1
   81    73    21 1
   82    74    21 1
   83    75    20 1
   84    76    20 1
   85    77    20 1
   86    78    15 1
   87    79    15 1
   88    80    15 1
   89    81     8 1
   90    82     8 1
   91    83     8 1
   92    84     7 1
   93    85     7 1
   94    86     6 1
   95    87     6 1
   96    88     3 1
   97    89     3 1
   98    90     1 1
   99    91     1 1
  100    92    63 1
  101    93    63 1
  102    94    63 1
  103    95    62 1
  104    96    62 1
  105    97    62 1
  106    98    60 1
  107    99    60 1
  108   100    59 1
  109   101    59 1
  110   102    58 1
  111   103    58 1
  112   104    57 1
  113   105    57 1
  114   106    57 1
  115   107    55 1
  116   108    55 1
  117   109    54 1
  118   110    54 1
  119   111    53 1
  120   112    53 1
  121   113    19 1
  122   114    18 1
  123   115    17 1
  124   116     9 1
  125   117     2 1
  126   118    52 1
  127   119    52 1
  128   120    52 1
  129   121    51 1
  130   122    50 1
  131   123    50 1
  132   124    49 1
  133   125    49 1
  134   126    48 1
  135   127    48 1
  136   128    43 1
  137   129    43 1
  138   130    43 1
  139   131    39 1
  140   132    32 1
  141   133    31 1
  142   134    61 1
  143   135    56 1
  144   136    24 1
  145   137    24 1
  146   139   138 1
  147   140   139 1
  148   141   140 1
  149   142   140 1
  150   143   142 1
  151   144   138 1
  152   144   143 1
  153   145   144 1
  154   146   145 1
  155   147   146 1
  156   148   147 1
  157   149   148 1
  158   150   149 1
  159   151   150 1
  160   152   151 1
  161   153   152 1
  162   154   138 1
  163   155   138 1
  164   156   143 1
  165   157   147 1
  166   158   151 1
  167   160   159 1
  168   161   160 1
  169   162   161 1
  170   163   161 1
  171   164   163 1
  172   165   159 1
  173   165   164 1
  174   166   165 1
  175   167   166 1
  176   168   167 1
  177   169   168 1
  178   170   169 1
  179   171   170 1
  180   172   171 1
  181   173   172 1
  182   174   153 1
  183   174   173 1
  184   175   159 1
  185   176   159 1
  186   177   164 1
  187   178   168 1
  188   179   172 1
  189   180   179 1
  190   181   179 1
  191   182   179 1
  192   183   178 1
  193   184   178 1
  194   185   178 1
  195   186   177 1
  196   187   177 1
  197   188   177 1
  198   189   176 1
  199   190   176 1
  200   191   176 1
  201   192   175 1
  202   193   175 1
  203   194   175 1
  204   195   160 1
  205   196   160 1
  206   197   158 1
  207   198   158 1
  208   199   158 1
  209   200   157 1
  210   201   157 1
  211   202   157 1
  212   203   156 1
  213   204   156 1
  214   205   156 1
  215   206   155 1
  216   207   155 1
  217   208   155 1
  218   209   154 1
  219   210   154 1
  220   211   154 1
  221   212   141 1
  222   213   146 1
  223   214   145 1
  224   215   142 1
  225   216   142 1
  226   217   174 1
  227   218   173 1
  228   219   171 1
  229   220   170 1
  230   221   169 1
  231   222   140 1
  232   223   167 1
  233   224   166 1
  234   225   165 1
  235   226   163 1
  236   227   161 1
  237   228   139 1
  238   229   139 1
  239   230   153 1
  240   231   152 1
  241   232   150 1
  242   233   149 1
  243   234   148 1
  244   235   162 1
  245   65    153 1
  246   65    174 1
@<TRIPOS>SUBSTRUCTURE
      1 CLA               1 ****               0 ****  **** 
      2 LUT             138 ****               0 ****  **** 
