@<TRIPOS>MOLECULE
Cpptraj generated mol2 file.
  235   246     2     0     0
SMALL
USER_CHARGES


@<TRIPOS>ATOM
      1 CAA        80.2626   58.0177   33.8772 a2         1 CLA     -0.055900
      2 CAB        80.2840   61.4992   42.9999 c8         1 CLA     -0.148500
      3 CAC        73.0448   58.3240   41.9612 a2         1 CLA     -0.012600
      4 CAD        75.8928   55.6747   34.9705 ck         1 CLA      0.398800
      5 NA         79.0870   58.5503   37.1063 ns         1 CLA     -0.225500
      6 CBA        81.5624   57.8645   33.0171 a2         1 CLA     -0.135000
      7 CBB        81.1236   62.5206   43.3557 c0         1 CLA     -0.395200
      8 CBC        73.2329   56.8591   41.9592 a3         1 CLA     -0.037700
      9 CBD        77.3568   56.1462   34.5273 a1         1 CLA     -0.053900
     10 NB         79.0541   60.0026   39.7123 nm         1 CLA     -0.295700
     11 OBD        75.2670   54.7819   34.3802 o2         1 CLA     -0.494600
     12 CGA        82.1106   56.5292   32.6959 c4         1 CLA      0.827000
     13 CGD        78.3711   55.0594   34.5020 c4         1 CLA      0.655300
     14 ND         76.2782   57.8820   37.6185 nm         1 CLA     -0.291600
     15 CED        79.1433   53.0498   35.7774 a3         1 CLA      0.005400
     16 CHA        77.7427   57.1701   35.6419 cs         1 CLA     -0.123800
     17 CHB        80.9554   59.6129   38.3067 aa         1 CLA     -0.291900
     18 CHC        77.7015   60.4302   41.6845 aa         1 CLA     -0.090400
     19 CHD        74.3501   57.9997   39.1550 aa         1 CLA     -0.052000
     20 CMA        82.1645   57.1109   37.0643 a3         1 CLA     -0.230700
     21 CMB        82.6220   60.9854   40.5378 a3         1 CLA     -0.180800
     22 CMC        75.2085   60.3700   43.6081 a3         1 CLA     -0.134000
     23 CMD        73.1509   55.8337   37.1332 a3         1 CLA     -0.141100
     24 C1         82.7966   54.5490   33.6932 a2         1 CLA      0.023000
     25 C1A        78.9612   57.7208   35.9754 ac         1 CLA     -0.015100
     26 C1B        80.4045   60.0839   39.4665 cr         1 CLA      0.054700
     27 C1C        76.4481   59.9071   41.3539 cn         1 CLA     -0.005600
     28 C1D        74.9731   57.5324   37.9817 ap         1 CLA     -0.047300
     29 O1A        82.2522   55.9993   31.5895 o2         1 CLA     -0.610800
     30 O1D        79.1802   54.8651   33.6025 o2         1 CLA     -0.558200
     31 C2         83.1120   53.9799   34.9853 c8         1 CLA     -0.325100
     32 C2A        80.2714   57.4482   35.2513 a1         1 CLA      0.098600
     33 C2B        81.1380   60.6949   40.6334 cb         1 CLA      0.088500
     34 C2C        75.3046   59.8154   42.2119 cb         1 CLA      0.053700
     35 C2D        74.4728   56.5338   37.0570 cb         1 CLA      0.058900
     36 O2A        82.4617   55.9307   33.9263 o1         1 CLA     -0.437200
     37 O2D        78.3278   54.3026   35.6864 o1         1 CLA     -0.357600
     38 C3         84.1423   53.1422   35.1913 c5         1 CLA      0.031200
     39 C3A        81.2401   58.1813   36.2579 a1         1 CLA      0.166800
     40 C3B        80.1860   60.9024   41.6296 cb         1 CLA      0.035000
     41 C3C        74.3841   58.9412   41.5009 cb         1 CLA     -0.089900
     42 C3D        75.5128   56.4032   36.1437 cb         1 CLA     -0.035900
     43 C4         83.9805   51.6545   34.9903 a3         1 CLA     -0.053300
     44 C4A        80.3773   58.8998   37.2668 ac         1 CLA      0.001800
     45 C4B        78.9176   60.4462   40.9808 cn         1 CLA     -0.020900
     46 C4C        74.9575   58.7112   40.1964 cr         1 CLA     -0.044400
     47 C4D        76.5530   57.2675   36.4616 c6         1 CLA     -0.046000
     48 C5         85.5977   53.6955   35.4222 a2         1 CLA     -0.070400
     49 C6         85.6612   54.6503   36.5210 a2         1 CLA      0.043900
     50 C7         87.1185   55.0871   36.8803 a2         1 CLA     -0.150000
     51 C8         87.2759   55.7884   38.2676 a1         1 CLA      0.064200
     52 C9         86.4243   57.1607   38.4531 a3         1 CLA     -0.259300
     53 C10        88.7586   56.1382   38.6017 a2         1 CLA     -0.071900
     54 C11        89.0964   56.8577   39.9795 a2         1 CLA      0.014500
     55 C12        88.6817   55.9150   41.1717 a2         1 CLA     -0.112100
     56 C13        88.4971   56.4005   42.6552 a1         1 CLA      0.089200
     57 C14        88.2835   55.1143   43.4862 a3         1 CLA     -0.239100
     58 C15        87.2687   57.4264   42.8067 a2         1 CLA     -0.102200
     59 C16        87.3812   58.1587   44.0936 a2         1 CLA      0.023900
     60 C17        86.3954   59.3748   44.0473 a2         1 CLA     -0.105700
     61 C18        84.8877   59.0435   43.8960 a1         1 CLA      0.206800
     62 C19        84.3926   58.1967   45.0545 a3         1 CLA     -0.280100
     63 C20        84.0141   60.3050   43.8719 a3         1 CLA     -0.280100
     64 NC         76.2326   59.2841   40.1883 nx         1 CLA     -0.309200
     65 MG         77.6497   59.0272   38.6080 mg         1 CLA      0.895000
     66 HMD3       73.3019   55.0583   37.8335 dc         1 CLA      0.064300
     67 HMD2       72.3889   56.5253   37.5070 dc         1 CLA      0.064300
     68 HMD1       72.8549   55.3382   36.1617 dc         1 CLA      0.064300
     69 HMC3       75.7659   61.3041   43.6812 dc         1 CLA      0.052100
     70 HMC2       74.1744   60.6175   43.8173 dc         1 CLA      0.052100
     71 HMC1       75.4774   59.6385   44.3653 dc         1 CLA      0.052100
     72 HMB3       82.9670   61.6787   41.2955 dc         1 CLA      0.063600
     73 HMB2       83.0771   59.9794   40.4971 dc         1 CLA      0.063600
     74 HMB1       82.7729   61.4133   39.6621 dc         1 CLA      0.063600
     75 HMA3       82.6683   56.4449   36.3543 dc         1 CLA      0.058300
     76 HMA2       82.9559   57.6061   37.6035 dc         1 CLA      0.058300
     77 HMA1       81.4911   56.5548   37.6732 dc         1 CLA      0.058300
     78 HED3       78.7027   52.1661   35.4338 dc         1 CLA      0.079300
     79 HED2       80.0803   53.1966   35.2462 dc         1 CLA      0.079300
     80 HED1       79.3343   52.7911   36.7957 dc         1 CLA      0.079300
     81 HBC3       73.7105   56.4443   41.0659 dc         1 CLA      0.016300
     82 HBC2       73.8315   56.6923   42.7815 dc         1 CLA      0.016300
     83 HBC1       72.2753   56.4355   42.2707 dc         1 CLA      0.016300
     84 HBB2       81.2421   62.8965   44.3913 da         1 CLA      0.183000
     85 HBB1       81.7805   63.0163   42.6464 da         1 CLA      0.183000
     86 HBA2       81.5471   58.4618   32.1213 dc         1 CLA      0.029400
     87 HBA1       82.4753   58.3198   33.5615 dc         1 CLA      0.029400
     88 HAC2       72.7750   58.6019   42.9601 dc         1 CLA      0.029300
     89 HAC1       72.2124   58.7627   41.2833 dc         1 CLA      0.029300
     90 HAA2       79.3927   57.7106   33.2336 dc         1 CLA      0.028700
     91 HAA1       80.0503   59.0956   34.0188 dc         1 CLA      0.028700
     92 H203       84.1616   60.9463   42.9958 dc         1 CLA      0.065600
     93 H202       83.0443   59.8802   43.8045 dc         1 CLA      0.065600
     94 H201       84.1187   60.8128   44.7814 dc         1 CLA      0.065600
     95 H193       84.6917   57.1793   44.8465 dc         1 CLA      0.065600
     96 H192       84.8141   58.5139   46.0475 dc         1 CLA      0.065600
     97 H191       83.2635   58.2225   45.1704 dc         1 CLA      0.065600
     98 H172       86.5749   59.9511   44.9798 dc         1 CLA      0.027600
     99 H171       86.7023   60.0640   43.1965 dc         1 CLA      0.027600
    100 H162       87.1486   57.3644   44.8384 dc         1 CLA      0.002900
    101 H161       88.3044   58.5813   44.2990 dc         1 CLA      0.002900
    102 H152       87.3484   58.1155   41.9704 dc         1 CLA      0.029100
    103 H151       86.2639   56.9428   42.8171 dc         1 CLA      0.029100
    104 H143       89.2045   54.6346   43.7071 dc         1 CLA      0.063600
    105 H142       87.9174   55.4277   44.4865 dc         1 CLA      0.063600
    106 H141       87.4572   54.4558   43.2380 dc         1 CLA      0.063600
    107 H122       87.7430   55.5291   40.8875 dc         1 CLA      0.032500
    108 H121       89.4295   55.1424   40.9866 dc         1 CLA      0.032500
    109 H112       90.1304   57.0019   40.0906 dc         1 CLA      0.006600
    110 H111       88.3625   57.6976   39.9894 dc         1 CLA      0.006600
    111 H102       89.4390   55.2629   38.6193 dc         1 CLA      0.024100
    112 H101       89.1428   56.7643   37.7608 dc         1 CLA      0.024100
    113 HHD        73.3657   57.8373   39.2713 da         1 CLA      0.174300
    114 HHC        77.7218   60.9592   42.6140 da         1 CLA      0.136800
    115 HHB        82.0490   59.6138   38.4508 da         1 CLA      0.138300
    116 HBD        77.1641   56.6215   33.5891 dc         1 CLA      0.107700
    117 HAB        79.7185   61.0697   43.8937 da         1 CLA      0.155200
    118 H93        85.4947   57.0294   37.9347 dc         1 CLA      0.069500
    119 H92        86.1386   57.3925   39.5017 dc         1 CLA      0.069500
    120 H91        86.9041   58.0327   38.0644 dc         1 CLA      0.069500
    121 H8         86.8820   55.0279   38.9618 dc         1 CLA      0.029300
    122 H72        87.6262   54.0940   37.0352 dc         1 CLA      0.044400
    123 H71        87.5202   55.6591   36.0226 dc         1 CLA      0.044400
    124 H62        85.0448   55.5114   36.2150 dc         1 CLA      0.015600
    125 H61        85.1936   54.0714   37.2977 dc         1 CLA      0.015600
    126 H52        86.2886   52.9492   35.5911 dc         1 CLA      0.033200
    127 H51        85.8498   54.1615   34.4750 dc         1 CLA      0.033200
    128 H43        84.3126   51.2992   35.9786 dc         1 CLA      0.037000
    129 H42        82.9283   51.4468   34.8806 dc         1 CLA      0.037000
    130 H41        84.5391   51.2086   34.1553 dc         1 CLA      0.037000
    131 H3A        82.0373   58.6689   35.6739 dc         1 CLA      0.041100
    132 H2A        80.4738   56.3539   35.2022 dc         1 CLA      0.083100
    133 H2         82.6250   54.3704   35.9226 da         1 CLA      0.180900
    134 H18        84.7414   58.5813   42.9142 dc         1 CLA     -0.003900
    135 H13        89.5034   56.9292   42.9079 dc         1 CLA      0.019700
    136 H12        81.9523   54.0005   33.2552 dc         1 CLA      0.120400
    137 H11        83.7167   54.4425   33.0703 dc         1 CLA      0.120400
    138 C1         70.6144   61.8308   49.3493 Z1         2 LUT      0.509236
    139 C2         69.2931   61.4810   50.0515 Z2         2 LUT     -0.434695
    140 C3         68.4689   62.6361   50.5354 Z3         2 LUT      0.437453
    141 O3         69.0544   63.0585   51.8197 S1         2 LUT     -0.547129
    142 C4         68.4894   63.7830   49.5793 Z4         2 LUT     -0.468603
    143 C5         69.2945   63.6629   48.3257 Z5         2 LUT      0.279246
    144 C6         70.2579   62.6977   48.1705 Z6         2 LUT     -0.305473
    145 C7         70.7510   62.2544   46.8199 Z7         2 LUT      0.069402
    146 C8         71.6042   62.8848   45.9909 Z8         2 LUT     -0.191631
    147 C9         71.7537   62.5880   44.5213 Z9         2 LUT      0.196698
    148 C10        72.6023   63.4029   43.8238 Y1         2 LUT     -0.208611
    149 C11        73.3531   63.1039   42.6552 Y2         2 LUT      0.030784
    150 C12        74.6148   63.6566   42.6067 Y3         2 LUT     -0.220316
    151 C13        75.5655   63.4194   41.4868 Y4         2 LUT      0.215937
    152 C14        76.9010   63.8978   41.6760 Y5         2 LUT     -0.185793
    153 C15        77.8870   63.9019   40.6802 Y6         2 LUT     -0.057835
    154 C16        71.2203   60.4664   48.9234 Y7         2 LUT     -0.405615
    155 C17        71.5274   62.5281   50.2995 Y7         2 LUT     -0.405615
    156 C18        68.5897   64.3786   47.1697 Y9         2 LUT     -0.369639
    157 C19        71.2775   61.2372   44.1144 W1         2 LUT     -0.333362
    158 C20        75.0732   62.8177   40.1591 W2         2 LUT     -0.323439
    159 C21        89.0850   64.8515   34.4651 Z1         2 LUT      0.406104
    160 C22        89.7800   64.2723   33.1662 Z2         2 LUT     -0.404965
    161 C23        90.0648   65.3526   32.0854 Z3         2 LUT      0.391255
    162 O23        90.6565   64.6716   30.9428 S1         2 LUT     -0.528210
    163 C24        88.7499   66.1004   31.8499 W6         2 LUT     -0.258361
    164 C25        87.7658   66.2482   32.6933 Z5         2 LUT      0.133546
    165 C26        87.6944   65.4425   34.0210 W8         2 LUT     -0.147008
    166 C27        86.9221   66.2714   35.0595 Z7         2 LUT      0.023843
    167 C28        85.8425   65.6692   35.7060 Z8         2 LUT     -0.216987
    168 C29        85.1931   66.0432   36.9216 Z9         2 LUT      0.206524
    169 C30        84.2010   65.2369   37.4352 Y1         2 LUT     -0.215556
    170 C31        83.5851   65.2936   38.7434 Y2         2 LUT      0.025142
    171 C32        82.4266   64.6036   39.0282 Y3         2 LUT     -0.212209
    172 C33        81.5193   64.8750   40.1415 Y4         2 LUT      0.240937
    173 C34        80.2561   64.3927   40.0459 Y5         2 LUT     -0.218862
    174 C35        79.1138   64.5330   40.8770 Y6         2 LUT     -0.023547
    175 C36        90.0980   65.8225   35.2290 Y7         2 LUT     -0.393485
    176 C37        88.9523   63.6479   35.4344 Y7         2 LUT     -0.393485
    177 C38        86.4885   66.9303   32.2584 Y9         2 LUT     -0.387526
    178 C39        85.6897   67.3519   37.5556 W1         2 LUT     -0.322618
    179 C40        81.8908   65.7388   41.3189 W2         2 LUT     -0.358472
    180 H403       81.9098   65.0692   42.1968 R7         2 LUT      0.097720
    181 H402       82.9480   66.1358   41.2780 R7         2 LUT      0.097720
    182 H401       81.2530   66.5233   41.6365 R7         2 LUT      0.097720
    183 H393       85.8782   68.1367   36.8670 R4         2 LUT      0.082505
    184 H392       85.0118   67.7127   38.3401 R4         2 LUT      0.082505
    185 H391       86.5318   67.2059   38.1574 R4         2 LUT      0.082505
    186 H383       86.3672   66.9463   31.1742 R1         2 LUT      0.104030
    187 H382       85.7514   66.2972   32.6509 R1         2 LUT      0.104030
    188 H381       86.3129   67.8415   32.6818 R1         2 LUT      0.104030
    189 H373       89.8975   63.2616   35.8140 T4         2 LUT      0.089537
    190 H372       88.3020   63.9149   36.2599 T4         2 LUT      0.089537
    191 H371       88.3359   62.9128   34.9052 T4         2 LUT      0.089537
    192 H363       90.3940   66.7185   34.6164 T4         2 LUT      0.089537
    193 H362       89.7596   66.3256   36.1231 T4         2 LUT      0.089537
    194 H361       91.0311   65.3722   35.5334 T4         2 LUT      0.089537
    195 H222       90.6899   63.6899   33.3758 U2         2 LUT      0.127376
    196 H221       89.1866   63.4933   32.7251 U2         2 LUT      0.127376
    197 H203       75.4541   63.4484   39.3376 R7         2 LUT      0.087068
    198 H202       75.2798   61.7760   40.0191 R7         2 LUT      0.087068
    199 H201       74.0273   62.8639   40.0942 R7         2 LUT      0.087068
    200 H193       71.5050   60.9834   43.0784 R4         2 LUT      0.089716
    201 H192       71.7844   60.5024   44.7336 R4         2 LUT      0.089716
    202 H191       70.1773   61.1085   44.2543 R4         2 LUT      0.089716
    203 H183       68.6413   63.7686   46.2820 R1         2 LUT      0.094572
    204 H182       67.5897   64.7139   47.3339 R1         2 LUT      0.094572
    205 H181       69.1855   65.2488   46.8976 R1         2 LUT      0.094572
    206 H173       71.1651   63.5287   50.4657 T4         2 LUT      0.093752
    207 H172       71.7793   62.0119   51.2086 T4         2 LUT      0.093752
    208 H171       72.5253   62.6801   49.8138 T4         2 LUT      0.093752
    209 H163       72.1834   60.6540   48.4756 T4         2 LUT      0.093752
    210 H162       71.4210   59.7629   49.7429 T4         2 LUT      0.093752
    211 H161       70.6001   59.8458   48.2113 T4         2 LUT      0.093752
    212 HO3        68.6210   62.6566   52.6235 Q1         2 LUT      0.300121
    213 H8         72.0897   63.8584   46.3403 U7         2 LUT      0.080784
    214 H7         70.2421   61.3169   46.5410 U6         2 LUT      0.042190
    215 H42        67.4685   64.1245   49.3648 U5         2 LUT      0.145166
    216 H41        68.9797   64.6241   50.2137 U5         2 LUT      0.145166
    217 H35        79.2226   65.0341   41.8321 T3         2 LUT      0.077919
    218 H34        80.0407   63.6779   39.2564 T2         2 LUT      0.073626
    219 H32        81.8939   64.0753   38.1792 T1         2 LUT      0.092510
    220 H31        84.0012   65.9756   39.4813 U9         2 LUT      0.070048
    221 H30        83.9518   64.2940   36.9969 U8         2 LUT      0.085442
    222 H3         67.4543   62.2161   50.7768 U3         2 LUT     -0.031596
    223 H28        85.4953   64.7603   35.2659 U7         2 LUT      0.084728
    224 H27        87.3381   67.1896   35.4352 U6         2 LUT      0.087291
    225 H26        87.1104   64.5678   33.8476 Q6         2 LUT      0.075325
    226 H24        88.7083   66.5397   30.8020 Q5         2 LUT      0.094482
    227 H23        90.7556   66.1265   32.3217 U3         2 LUT     -0.024869
    228 H22        68.6224   60.9699   49.3146 U2         2 LUT      0.127376
    229 H21        69.4716   60.7835   50.8729 U2         2 LUT      0.127376
    230 H15        77.8574   63.4014   39.7409 T3         2 LUT      0.093200
    231 H14        77.1505   64.5214   42.5169 T2         2 LUT      0.068865
    232 H12        75.0454   64.3573   43.3707 T1         2 LUT      0.095507
    233 H11        72.9624   62.4000   41.9298 U9         2 LUT      0.068930
    234 H10        73.0367   64.1769   44.3777 U8         2 LUT      0.083911
    235 H1         89.9603   64.4035   30.2668 Q1         2 LUT      0.297311
@<TRIPOS>BOND
    1     6     1 1
    2     7     2 1
    3     8     3 1
    4     9     4 1
    5    11     4 1
    6    12     6 1
    7    13     9 1
    8    16     9 1
    9    25     5 1
   10    25    16 1
   11    26    10 1
   12    26    17 1
   13    27    18 1
   14    28    14 1
   15    28    19 1
   16    29    12 1
   17    30    13 1
   18    31    24 1
   19    32     1 1
   20    32    25 1
   21    33    21 1
   22    33    26 1
   23    34    22 1
   24    34    27 1
   25    35    23 1
   26    35    28 1
   27    36    12 1
   28    36    24 1
   29    37    13 1
   30    37    15 1
   31    38    31 1
   32    39    20 1
   33    39    32 1
   34    40     2 1
   35    40    33 1
   36    41     3 1
   37    41    34 1
   38    42     4 1
   39    42    35 1
   40    43    38 1
   41    44     5 1
   42    44    17 1
   43    44    39 1
   44    45    10 1
   45    45    18 1
   46    45    40 1
   47    46    19 1
   48    46    41 1
   49    47    14 1
   50    47    16 1
   51    47    42 1
   52    48    38 1
   53    49    48 1
   54    50    49 1
   55    51    50 1
   56    52    51 1
   57    53    51 1
   58    54    53 1
   59    55    54 1
   60    56    55 1
   61    57    56 1
   62    58    56 1
   63    59    58 1
   64    60    59 1
   65    61    60 1
   66    62    61 1
   67    63    61 1
   68    64    27 1
   69    64    46 1
   70    65     5 1
   71    65    10 1
   72    65    64 1
   73    65    14 1
   74    66    23 1
   75    67    23 1
   76    68    23 1
   77    69    22 1
   78    70    22 1
   79    71    22 1
   80    72    21 1
   81    73    21 1
   82    74    21 1
   83    75    20 1
   84    76    20 1
   85    77    20 1
   86    78    15 1
   87    79    15 1
   88    80    15 1
   89    81     8 1
   90    82     8 1
   91    83     8 1
   92    84     7 1
   93    85     7 1
   94    86     6 1
   95    87     6 1
   96    88     3 1
   97    89     3 1
   98    90     1 1
   99    91     1 1
  100    92    63 1
  101    93    63 1
  102    94    63 1
  103    95    62 1
  104    96    62 1
  105    97    62 1
  106    98    60 1
  107    99    60 1
  108   100    59 1
  109   101    59 1
  110   102    58 1
  111   103    58 1
  112   104    57 1
  113   105    57 1
  114   106    57 1
  115   107    55 1
  116   108    55 1
  117   109    54 1
  118   110    54 1
  119   111    53 1
  120   112    53 1
  121   113    19 1
  122   114    18 1
  123   115    17 1
  124   116     9 1
  125   117     2 1
  126   118    52 1
  127   119    52 1
  128   120    52 1
  129   121    51 1
  130   122    50 1
  131   123    50 1
  132   124    49 1
  133   125    49 1
  134   126    48 1
  135   127    48 1
  136   128    43 1
  137   129    43 1
  138   130    43 1
  139   131    39 1
  140   132    32 1
  141   133    31 1
  142   134    61 1
  143   135    56 1
  144   136    24 1
  145   137    24 1
  146   139   138 1
  147   140   139 1
  148   141   140 1
  149   142   140 1
  150   143   142 1
  151   144   138 1
  152   144   143 1
  153   145   144 1
  154   146   145 1
  155   147   146 1
  156   148   147 1
  157   149   148 1
  158   150   149 1
  159   151   150 1
  160   152   151 1
  161   153   152 1
  162   154   138 1
  163   155   138 1
  164   156   143 1
  165   157   147 1
  166   158   151 1
  167   160   159 1
  168   161   160 1
  169   162   161 1
  170   163   161 1
  171   164   163 1
  172   165   159 1
  173   165   164 1
  174   166   165 1
  175   167   166 1
  176   168   167 1
  177   169   168 1
  178   170   169 1
  179   171   170 1
  180   172   171 1
  181   173   172 1
  182   174   153 1
  183   174   173 1
  184   175   159 1
  185   176   159 1
  186   177   164 1
  187   178   168 1
  188   179   172 1
  189   180   179 1
  190   181   179 1
  191   182   179 1
  192   183   178 1
  193   184   178 1
  194   185   178 1
  195   186   177 1
  196   187   177 1
  197   188   177 1
  198   189   176 1
  199   190   176 1
  200   191   176 1
  201   192   175 1
  202   193   175 1
  203   194   175 1
  204   195   160 1
  205   196   160 1
  206   197   158 1
  207   198   158 1
  208   199   158 1
  209   200   157 1
  210   201   157 1
  211   202   157 1
  212   203   156 1
  213   204   156 1
  214   205   156 1
  215   206   155 1
  216   207   155 1
  217   208   155 1
  218   209   154 1
  219   210   154 1
  220   211   154 1
  221   212   141 1
  222   213   146 1
  223   214   145 1
  224   215   142 1
  225   216   142 1
  226   217   174 1
  227   218   173 1
  228   219   171 1
  229   220   170 1
  230   221   169 1
  231   222   140 1
  232   223   167 1
  233   224   166 1
  234   225   165 1
  235   226   163 1
  236   227   161 1
  237   228   139 1
  238   229   139 1
  239   230   153 1
  240   231   152 1
  241   232   150 1
  242   233   149 1
  243   234   148 1
  244   235   162 1
  245   65    153 1
  246   65    174 1
@<TRIPOS>SUBSTRUCTURE
      1 CLA               1 ****               0 ****  **** 
      2 LUT             138 ****               0 ****  **** 
