@<TRIPOS>MOLECULE
Cpptraj generated mol2 file.
  235   246     2     0     0
SMALL
USER_CHARGES


@<TRIPOS>ATOM
      1 CAA        80.0086   59.5086   33.9130 a2         1 CLA     -0.055900
      2 CAB        79.8834   62.7764   43.3218 c8         1 CLA     -0.148500
      3 CAC        73.2417   58.2350   42.5813 a2         1 CLA     -0.012600
      4 CAD        76.0173   56.3805   35.1548 ck         1 CLA      0.398800
      5 NA         78.9459   59.6970   37.3164 ns         1 CLA     -0.225500
      6 CBA        81.3028   59.2928   33.1001 a2         1 CLA     -0.135000
      7 CBB        79.5734   62.0964   44.4594 c0         1 CLA     -0.395200
      8 CBC        73.6088   56.7706   42.8879 a3         1 CLA     -0.037700
      9 CBD        77.3141   57.1498   34.7891 a1         1 CLA     -0.053900
     10 NB         78.8708   61.0398   40.1060 nm         1 CLA     -0.295700
     11 OBD        75.4212   55.6393   34.3791 o2         1 CLA     -0.494600
     12 CGA        81.6963   57.8223   32.7499 c4         1 CLA      0.827000
     13 CGD        78.3948   56.0977   34.6319 c4         1 CLA      0.655300
     14 ND         76.3352   58.4780   38.0198 nm         1 CLA     -0.291600
     15 CED        79.1262   53.8281   35.2202 a3         1 CLA      0.005400
     16 CHA        77.6815   58.1184   35.9620 cs         1 CLA     -0.123800
     17 CHB        80.6703   61.1336   38.4459 aa         1 CLA     -0.291900
     18 CHC        77.4300   61.0831   42.1916 aa         1 CLA     -0.090400
     19 CHD        74.4452   58.2765   39.6404 aa         1 CLA     -0.052000
     20 CMA        82.3344   59.0709   36.8710 a3         1 CLA     -0.230700
     21 CMB        81.8880   63.0100   40.6373 a3         1 CLA     -0.180800
     22 CMC        75.0905   60.2695   44.3037 a3         1 CLA     -0.134000
     23 CMD        73.3910   56.0443   37.4614 a3         1 CLA     -0.141100
     24 C1         82.6047   55.8057   33.8285 a2         1 CLA      0.023000
     25 C1A        78.8249   58.9493   36.1987 ac         1 CLA     -0.015100
     26 C1B        80.0923   61.4561   39.7163 cr         1 CLA      0.054700
     27 C1C        76.3859   60.2524   41.9185 cn         1 CLA     -0.005600
     28 C1D        75.0939   57.9458   38.3927 ap         1 CLA     -0.047300
     29 O1A        81.6094   57.2647   31.6556 o2         1 CLA     -0.610800
     30 O1D        79.2423   56.1338   33.7777 o2         1 CLA     -0.558200
     31 C2         83.5112   55.6211   35.0036 c8         1 CLA     -0.325100
     32 C2A        80.1019   59.0243   35.4178 a1         1 CLA      0.098600
     33 C2B        80.5676   62.3523   40.7455 cb         1 CLA      0.088500
     34 C2C        75.3363   59.8590   42.8145 cb         1 CLA      0.053700
     35 C2D        74.6201   56.9424   37.3927 cb         1 CLA      0.058900
     36 O2A        82.2600   57.2392   33.8547 o1         1 CLA     -0.437200
     37 O2D        78.4430   55.1060   35.6181 o1         1 CLA     -0.357600
     38 C3         84.6358   54.8358   35.0563 c5         1 CLA      0.031200
     39 C3A        81.0868   59.8615   36.2668 a1         1 CLA      0.166800
     40 C3B        79.7114   62.2641   41.8578 cb         1 CLA      0.035000
     41 C3C        74.4522   59.0604   42.0982 cb         1 CLA     -0.089900
     42 C3D        75.6255   56.9999   36.3988 cb         1 CLA     -0.035900
     43 C4         84.6399   53.3777   35.3962 a3         1 CLA     -0.053300
     44 C4A        80.1946   60.2694   37.4269 ac         1 CLA      0.001800
     45 C4B        78.5721   61.4814   41.3424 cn         1 CLA     -0.020900
     46 C4C        74.9647   59.0503   40.7157 cr         1 CLA     -0.044400
     47 C4D        76.5655   58.0271   36.8165 c6         1 CLA     -0.046000
     48 C5         85.9289   55.5552   34.7550 a2         1 CLA     -0.070400
     49 C6         86.1868   56.8143   35.5645 a2         1 CLA      0.043900
     50 C7         86.3413   56.4739   37.0685 a2         1 CLA     -0.150000
     51 C8         86.6311   57.7198   38.0047 a1         1 CLA      0.064200
     52 C9         87.9590   58.4720   37.6392 a3         1 CLA     -0.259300
     53 C10        86.7628   57.2774   39.4572 a2         1 CLA     -0.071900
     54 C11        86.6071   58.4829   40.5057 a2         1 CLA      0.014500
     55 C12        86.6539   58.0613   41.9501 a2         1 CLA     -0.112100
     56 C13        86.9918   59.2527   42.9935 a1         1 CLA      0.089200
     57 C14        88.2558   60.0447   42.6119 a3         1 CLA     -0.239100
     58 C15        87.1068   58.6167   44.4345 a2         1 CLA     -0.102200
     59 C16        85.7076   58.2651   45.0519 a2         1 CLA      0.023900
     60 C17        84.9953   59.4950   45.6224 a2         1 CLA     -0.105700
     61 C18        83.7068   59.3577   46.4222 a1         1 CLA      0.206800
     62 C19        83.9362   58.5638   47.7435 a3         1 CLA     -0.280100
     63 C20        82.9692   60.7271   46.6006 a3         1 CLA     -0.280100
     64 NC         76.1781   59.6793   40.7108 nx         1 CLA     -0.309200
     65 MG         77.4782   59.8639   38.9694 mg         1 CLA      0.895000
     66 HMD3       73.3525   55.2782   36.7302 dc         1 CLA      0.064300
     67 HMD2       73.3495   55.5877   38.4915 dc         1 CLA      0.064300
     68 HMD1       72.4652   56.6766   37.3405 dc         1 CLA      0.064300
     69 HMC3       75.9897   60.7305   44.6438 dc         1 CLA      0.052100
     70 HMC2       74.3004   60.9881   44.4502 dc         1 CLA      0.052100
     71 HMC1       75.0096   59.3957   44.9821 dc         1 CLA      0.052100
     72 HMB3       82.7206   62.3914   40.4772 dc         1 CLA      0.063600
     73 HMB2       81.7912   63.6912   39.8310 dc         1 CLA      0.063600
     74 HMB1       82.0926   63.5786   41.5794 dc         1 CLA      0.063600
     75 HMA3       82.1005   58.0013   36.8056 dc         1 CLA      0.058300
     76 HMA2       83.1720   59.2673   36.1937 dc         1 CLA      0.058300
     77 HMA1       82.6303   59.4331   37.8760 dc         1 CLA      0.058300
     78 HED3       80.1604   54.1229   35.1025 dc         1 CLA      0.079300
     79 HED2       79.0999   53.0295   35.9921 dc         1 CLA      0.079300
     80 HED1       78.7326   53.4388   34.2978 dc         1 CLA      0.079300
     81 HBC3       74.4878   56.7620   43.5639 dc         1 CLA      0.016300
     82 HBC2       72.9304   56.2945   43.5344 dc         1 CLA      0.016300
     83 HBC1       73.9381   56.3394   42.0079 dc         1 CLA      0.016300
     84 HBB2       79.8099   62.4481   45.5163 da         1 CLA      0.183000
     85 HBB1       79.2683   61.0190   44.3479 da         1 CLA      0.183000
     86 HBA2       81.0782   59.7799   32.1175 dc         1 CLA      0.029400
     87 HBA1       82.1147   59.7876   33.5674 dc         1 CLA      0.029400
     88 HAC2       72.8689   58.5793   43.5323 dc         1 CLA      0.029300
     89 HAC1       72.4608   58.3853   41.8974 dc         1 CLA      0.029300
     90 HAA2       79.2642   59.0272   33.3024 dc         1 CLA      0.028700
     91 HAA1       79.7150   60.5408   33.9826 dc         1 CLA      0.028700
     92 H203       83.0764   61.3213   45.7183 dc         1 CLA      0.065600
     93 H202       81.9350   60.5366   46.7798 dc         1 CLA      0.065600
     94 H201       83.3574   61.2757   47.4736 dc         1 CLA      0.065600
     95 H193       83.1499   58.4661   48.4484 dc         1 CLA      0.065600
     96 H192       84.1626   57.5758   47.4976 dc         1 CLA      0.065600
     97 H191       84.6649   59.0350   48.3577 dc         1 CLA      0.065600
     98 H172       85.6449   59.9993   46.3328 dc         1 CLA      0.027600
     99 H171       84.6985   60.0276   44.6933 dc         1 CLA      0.027600
    100 H162       85.0707   57.7649   44.3261 dc         1 CLA      0.002900
    101 H161       85.8356   57.5150   45.9097 dc         1 CLA      0.002900
    102 H152       87.7194   57.7901   44.5716 dc         1 CLA      0.029100
    103 H151       87.5403   59.3870   45.0361 dc         1 CLA      0.029100
    104 H143       88.2413   60.9472   43.1924 dc         1 CLA      0.063600
    105 H142       89.1284   59.4586   42.8003 dc         1 CLA      0.063600
    106 H141       88.2070   60.3943   41.5824 dc         1 CLA      0.063600
    107 H122       85.7625   57.5701   42.2309 dc         1 CLA      0.032500
    108 H121       87.4967   57.3973   42.0583 dc         1 CLA      0.032500
    109 H112       87.2900   59.2591   40.2777 dc         1 CLA      0.006600
    110 H111       85.5874   58.9258   40.3192 dc         1 CLA      0.006600
    111 H102       85.9351   56.6355   39.7645 dc         1 CLA      0.024100
    112 H101       87.7457   56.7767   39.6505 dc         1 CLA      0.024100
    113 HHD        73.4711   57.9382   39.8675 da         1 CLA      0.174300
    114 HHC        77.4707   61.4659   43.1971 da         1 CLA      0.136800
    115 HHB        81.6853   61.5769   38.3339 da         1 CLA      0.138300
    116 HBD        77.3200   57.7304   33.9062 dc         1 CLA      0.107700
    117 HAB        80.2736   63.7629   43.4566 da         1 CLA      0.155200
    118 H93        87.8154   58.9319   36.6374 dc         1 CLA      0.069500
    119 H92        88.2433   59.2698   38.2852 dc         1 CLA      0.069500
    120 H91        88.8227   57.7535   37.5279 dc         1 CLA      0.069500
    121 H8         85.7622   58.3988   37.9745 dc         1 CLA      0.029300
    122 H72        85.4616   55.9922   37.3518 dc         1 CLA      0.044400
    123 H71        87.0804   55.6657   37.1122 dc         1 CLA      0.044400
    124 H62        87.1365   57.1913   35.2015 dc         1 CLA      0.015600
    125 H61        85.3688   57.5822   35.5291 dc         1 CLA      0.015600
    126 H52        86.7299   54.8827   34.9718 dc         1 CLA      0.033200
    127 H51        85.9932   55.8635   33.7088 dc         1 CLA      0.033200
    128 H43        84.4657   52.8614   34.4670 dc         1 CLA      0.037000
    129 H42        85.6041   53.0699   35.7635 dc         1 CLA      0.037000
    130 H41        83.7565   53.1609   36.0759 dc         1 CLA      0.037000
    131 H3A        81.3457   60.8474   35.8433 dc         1 CLA      0.041100
    132 H2A        80.4768   57.9822   35.5275 dc         1 CLA      0.083100
    133 H2         83.1772   56.1594   35.8648 da         1 CLA      0.180900
    134 H18        83.1194   58.7859   45.7730 dc         1 CLA     -0.003900
    135 H13        86.1194   59.9980   42.9200 dc         1 CLA      0.019700
    136 H12        81.7335   55.2098   33.8355 dc         1 CLA      0.120400
    137 H11        83.2006   55.5399   32.9333 dc         1 CLA      0.120400
    138 C1         69.6462   61.7946   50.2489 Z1         2 LUT      0.509236
    139 C2         68.2668   61.5093   50.7722 Z2         2 LUT     -0.434695
    140 C3         67.2103   62.6206   50.8490 Z3         2 LUT      0.437453
    141 O3         66.5989   62.7581   52.0815 S1         2 LUT     -0.547129
    142 C4         67.7315   63.8843   50.0698 Z4         2 LUT     -0.468603
    143 C5         68.6879   63.6792   48.9347 Z5         2 LUT      0.279246
    144 C6         69.6532   62.7338   49.0755 Z6         2 LUT     -0.305473
    145 C7         70.4390   62.2586   47.8693 Z7         2 LUT      0.069402
    146 C8         71.1727   63.0179   46.9603 Z8         2 LUT     -0.191631
    147 C9         71.6686   62.6381   45.6466 Z9         2 LUT      0.196698
    148 C10        72.4759   63.4256   44.9099 Y1         2 LUT     -0.208611
    149 C11        73.1321   63.2660   43.6099 Y2         2 LUT      0.030784
    150 C12        74.2331   64.0254   43.2447 Y3         2 LUT     -0.220316
    151 C13        75.0037   63.8860   42.0991 Y4         2 LUT      0.215937
    152 C14        76.1101   64.6774   41.9907 Y5         2 LUT     -0.185793
    153 C15        77.2018   64.8056   41.0252 Y6         2 LUT     -0.057835
    154 C16        70.4209   60.3938   50.0989 Y7         2 LUT     -0.405615
    155 C17        70.4020   62.5745   51.3753 Y7         2 LUT     -0.405615
    156 C18        68.3438   64.5635   47.7335 Y9         2 LUT     -0.369639
    157 C19        71.1777   61.3749   45.0609 W1         2 LUT     -0.333362
    158 C20        74.5736   63.1252   40.9042 W2         2 LUT     -0.323439
    159 C21        88.8406   66.0819   35.0654 Z1         2 LUT      0.406104
    160 C22        89.3607   65.6652   33.7276 Z2         2 LUT     -0.404965
    161 C23        89.2935   66.6653   32.5736 Z3         2 LUT      0.391255
    162 O23        89.6284   65.9296   31.3717 S1         2 LUT     -0.528210
    163 C24        87.8909   67.0410   32.4222 W6         2 LUT     -0.258361
    164 C25        87.0248   67.0205   33.4144 Z5         2 LUT      0.133546
    165 C26        87.3746   66.4410   34.8069 W8         2 LUT     -0.147008
    166 C27        86.6941   67.2129   35.9462 Z7         2 LUT      0.023843
    167 C28        85.3870   66.9481   36.3415 Z8         2 LUT     -0.216987
    168 C29        84.5877   67.5172   37.4402 Z9         2 LUT      0.206524
    169 C30        83.5461   66.8085   37.8302 Y1         2 LUT     -0.215556
    170 C31        82.6404   67.0052   38.9750 Y2         2 LUT      0.025142
    171 C32        81.5109   66.2513   39.1411 Y3         2 LUT     -0.212209
    172 C33        80.5469   66.4908   40.2553 Y4         2 LUT      0.240937
    173 C34        79.3969   65.7861   40.2310 Y5         2 LUT     -0.218862
    174 C35        78.3191   65.5849   41.1525 Y6         2 LUT     -0.023547
    175 C36        89.7091   67.3648   35.3093 Y7         2 LUT     -0.393485
    176 C37        89.2034   65.0046   36.1462 Y7         2 LUT     -0.393485
    177 C38        85.6143   67.4956   33.2005 Y9         2 LUT     -0.387526
    178 C39        85.2506   68.5964   38.2206 W1         2 LUT     -0.322618
    179 C40        80.9728   67.2442   41.5334 W2         2 LUT     -0.358472
    180 H403       81.8426   66.7541   42.0374 R7         2 LUT      0.097720
    181 H402       81.2007   68.3117   41.3452 R7         2 LUT      0.097720
    182 H401       80.2206   67.2236   42.3119 R7         2 LUT      0.097720
    183 H393       84.5700   69.2735   38.7517 R4         2 LUT      0.082505
    184 H392       85.8960   68.2556   39.0193 R4         2 LUT      0.082505
    185 H391       85.8896   69.3168   37.6971 R4         2 LUT      0.082505
    186 H383       84.8117   66.8494   33.5576 R1         2 LUT      0.104030
    187 H382       85.4625   68.4879   33.5982 R1         2 LUT      0.104030
    188 H381       85.4114   67.7142   32.1747 R1         2 LUT      0.104030
    189 H373       90.2804   64.8146   36.0716 T4         2 LUT      0.089537
    190 H372       89.0535   65.3275   37.2162 T4         2 LUT      0.089537
    191 H371       88.6704   64.0806   35.9580 T4         2 LUT      0.089537
    192 H363       89.4033   68.2583   34.7712 T4         2 LUT      0.089537
    193 H362       89.5652   67.6393   36.3855 T4         2 LUT      0.089537
    194 H361       90.7851   67.2716   35.2243 T4         2 LUT      0.089537
    195 H222       90.4471   65.4501   33.7323 U2         2 LUT      0.127376
    196 H221       88.9502   64.7090   33.4665 U2         2 LUT      0.127376
    197 H203       73.9799   62.2713   41.1191 R7         2 LUT      0.087068
    198 H202       73.9988   63.6717   40.0679 R7         2 LUT      0.087068
    199 H201       75.3851   62.6245   40.4257 R7         2 LUT      0.087068
    200 H193       70.5980   61.5925   44.1589 R4         2 LUT      0.089716
    201 H192       71.9796   60.7391   44.7332 R4         2 LUT      0.089716
    202 H191       70.5379   60.8228   45.6596 R4         2 LUT      0.089716
    203 H183       67.4678   64.1483   47.1693 R1         2 LUT      0.094572
    204 H182       67.9430   65.5934   48.0214 R1         2 LUT      0.094572
    205 H181       69.1940   64.6732   47.1308 R1         2 LUT      0.094572
    206 H173       71.4666   62.7415   51.1517 T4         2 LUT      0.093752
    207 H172       69.9646   63.5422   51.3881 T4         2 LUT      0.093752
    208 H171       70.2973   62.2384   52.3958 T4         2 LUT      0.093752
    209 H163       71.4640   60.4589   49.8489 T4         2 LUT      0.093752
    210 H162       70.5580   59.7821   51.0236 T4         2 LUT      0.093752
    211 H161       70.0391   59.7384   49.2805 T4         2 LUT      0.093752
    212 HO3        67.1625   63.3694   52.6052 Q1         2 LUT      0.300121
    213 H8         71.3161   64.0401   47.2813 U7         2 LUT      0.080784
    214 H7         70.2434   61.2147   47.6488 U6         2 LUT      0.042190
    215 H42        66.8712   64.3568   49.5692 U5         2 LUT      0.145166
    216 H41        67.9946   64.7016   50.7563 U5         2 LUT      0.145166
    217 H35        78.4240   66.1575   42.0047 T3         2 LUT      0.077919
    218 H34        79.3344   65.0888   39.3907 T2         2 LUT      0.073626
    219 H32        81.3414   65.4408   38.4384 T1         2 LUT      0.092510
    220 H31        82.6223   67.8958   39.7096 U9         2 LUT      0.070048
    221 H30        83.2235   65.9506   37.2123 U8         2 LUT      0.085442
    222 H3         66.3343   62.2638   50.2736 U3         2 LUT     -0.031596
    223 H28        84.8119   66.2774   35.7247 U7         2 LUT      0.084728
    224 H27        87.3683   67.9760   36.4742 U6         2 LUT      0.087291
    225 H26        86.9699   65.5075   34.8265 Q6         2 LUT      0.075325
    226 H24        87.5347   67.5397   31.4825 Q5         2 LUT      0.094482
    227 H23        90.0991   67.4637   32.5615 U3         2 LUT     -0.024869
    228 H22        67.7722   60.7418   50.1186 U2         2 LUT      0.127376
    229 H21        68.3184   60.8951   51.7181 U2         2 LUT      0.127376
    230 H15        77.0045   64.2879   40.1079 T3         2 LUT      0.093200
    231 H14        76.3599   65.3677   42.8028 T2         2 LUT      0.068865
    232 H12        74.5543   64.7937   43.9706 T1         2 LUT      0.095507
    233 H11        72.7824   62.5116   42.8976 U9         2 LUT      0.068930
    234 H10        72.7522   64.3137   45.5185 U8         2 LUT      0.083911
    235 H1         89.6522   66.4574   30.5488 Q1         2 LUT      0.297311
@<TRIPOS>BOND
    1     6     1 1
    2     7     2 1
    3     8     3 1
    4     9     4 1
    5    11     4 1
    6    12     6 1
    7    13     9 1
    8    16     9 1
    9    25     5 1
   10    25    16 1
   11    26    10 1
   12    26    17 1
   13    27    18 1
   14    28    14 1
   15    28    19 1
   16    29    12 1
   17    30    13 1
   18    31    24 1
   19    32     1 1
   20    32    25 1
   21    33    21 1
   22    33    26 1
   23    34    22 1
   24    34    27 1
   25    35    23 1
   26    35    28 1
   27    36    12 1
   28    36    24 1
   29    37    13 1
   30    37    15 1
   31    38    31 1
   32    39    20 1
   33    39    32 1
   34    40     2 1
   35    40    33 1
   36    41     3 1
   37    41    34 1
   38    42     4 1
   39    42    35 1
   40    43    38 1
   41    44     5 1
   42    44    17 1
   43    44    39 1
   44    45    10 1
   45    45    18 1
   46    45    40 1
   47    46    19 1
   48    46    41 1
   49    47    14 1
   50    47    16 1
   51    47    42 1
   52    48    38 1
   53    49    48 1
   54    50    49 1
   55    51    50 1
   56    52    51 1
   57    53    51 1
   58    54    53 1
   59    55    54 1
   60    56    55 1
   61    57    56 1
   62    58    56 1
   63    59    58 1
   64    60    59 1
   65    61    60 1
   66    62    61 1
   67    63    61 1
   68    64    27 1
   69    64    46 1
   70    65     5 1
   71    65    10 1
   72    65    64 1
   73    65    14 1
   74    66    23 1
   75    67    23 1
   76    68    23 1
   77    69    22 1
   78    70    22 1
   79    71    22 1
   80    72    21 1
   81    73    21 1
   82    74    21 1
   83    75    20 1
   84    76    20 1
   85    77    20 1
   86    78    15 1
   87    79    15 1
   88    80    15 1
   89    81     8 1
   90    82     8 1
   91    83     8 1
   92    84     7 1
   93    85     7 1
   94    86     6 1
   95    87     6 1
   96    88     3 1
   97    89     3 1
   98    90     1 1
   99    91     1 1
  100    92    63 1
  101    93    63 1
  102    94    63 1
  103    95    62 1
  104    96    62 1
  105    97    62 1
  106    98    60 1
  107    99    60 1
  108   100    59 1
  109   101    59 1
  110   102    58 1
  111   103    58 1
  112   104    57 1
  113   105    57 1
  114   106    57 1
  115   107    55 1
  116   108    55 1
  117   109    54 1
  118   110    54 1
  119   111    53 1
  120   112    53 1
  121   113    19 1
  122   114    18 1
  123   115    17 1
  124   116     9 1
  125   117     2 1
  126   118    52 1
  127   119    52 1
  128   120    52 1
  129   121    51 1
  130   122    50 1
  131   123    50 1
  132   124    49 1
  133   125    49 1
  134   126    48 1
  135   127    48 1
  136   128    43 1
  137   129    43 1
  138   130    43 1
  139   131    39 1
  140   132    32 1
  141   133    31 1
  142   134    61 1
  143   135    56 1
  144   136    24 1
  145   137    24 1
  146   139   138 1
  147   140   139 1
  148   141   140 1
  149   142   140 1
  150   143   142 1
  151   144   138 1
  152   144   143 1
  153   145   144 1
  154   146   145 1
  155   147   146 1
  156   148   147 1
  157   149   148 1
  158   150   149 1
  159   151   150 1
  160   152   151 1
  161   153   152 1
  162   154   138 1
  163   155   138 1
  164   156   143 1
  165   157   147 1
  166   158   151 1
  167   160   159 1
  168   161   160 1
  169   162   161 1
  170   163   161 1
  171   164   163 1
  172   165   159 1
  173   165   164 1
  174   166   165 1
  175   167   166 1
  176   168   167 1
  177   169   168 1
  178   170   169 1
  179   171   170 1
  180   172   171 1
  181   173   172 1
  182   174   153 1
  183   174   173 1
  184   175   159 1
  185   176   159 1
  186   177   164 1
  187   178   168 1
  188   179   172 1
  189   180   179 1
  190   181   179 1
  191   182   179 1
  192   183   178 1
  193   184   178 1
  194   185   178 1
  195   186   177 1
  196   187   177 1
  197   188   177 1
  198   189   176 1
  199   190   176 1
  200   191   176 1
  201   192   175 1
  202   193   175 1
  203   194   175 1
  204   195   160 1
  205   196   160 1
  206   197   158 1
  207   198   158 1
  208   199   158 1
  209   200   157 1
  210   201   157 1
  211   202   157 1
  212   203   156 1
  213   204   156 1
  214   205   156 1
  215   206   155 1
  216   207   155 1
  217   208   155 1
  218   209   154 1
  219   210   154 1
  220   211   154 1
  221   212   141 1
  222   213   146 1
  223   214   145 1
  224   215   142 1
  225   216   142 1
  226   217   174 1
  227   218   173 1
  228   219   171 1
  229   220   170 1
  230   221   169 1
  231   222   140 1
  232   223   167 1
  233   224   166 1
  234   225   165 1
  235   226   163 1
  236   227   161 1
  237   228   139 1
  238   229   139 1
  239   230   153 1
  240   231   152 1
  241   232   150 1
  242   233   149 1
  243   234   148 1
  244   235   162 1
  245   65    153 1
  246   65    174 1
@<TRIPOS>SUBSTRUCTURE
      1 CLA               1 ****               0 ****  **** 
      2 LUT             138 ****               0 ****  **** 
