@<TRIPOS>MOLECULE
Cpptraj generated mol2 file.
  235   246     2     0     0
SMALL
USER_CHARGES


@<TRIPOS>ATOM
      1 CAA        76.7181   58.5616   32.5803 a2         1 CLA     -0.055900
      2 CAB        77.3968   61.5957   41.7840 c8         1 CLA     -0.148500
      3 CAC        70.4946   57.2611   41.2870 a2         1 CLA     -0.012600
      4 CAD        72.9608   55.4779   33.9940 ck         1 CLA      0.398800
      5 NA         75.9879   58.6997   36.1333 ns         1 CLA     -0.225500
      6 CBA        77.9049   58.4185   31.5911 a2         1 CLA     -0.135000
      7 CBB        78.6992   61.6262   42.2363 c0         1 CLA     -0.395200
      8 CBC        70.7851   55.7352   41.4080 a3         1 CLA     -0.037700
      9 CBD        74.4128   55.9982   33.7235 a1         1 CLA     -0.053900
     10 NB         76.0019   60.0554   38.7360 nm         1 CLA     -0.295700
     11 OBD        72.4475   54.6134   33.2927 o2         1 CLA     -0.494600
     12 CGA        78.2854   57.0061   31.2007 c4         1 CLA      0.827000
     13 CGD        75.4073   54.8131   33.6484 c4         1 CLA      0.655300
     14 ND         73.1803   57.8311   36.6312 nm         1 CLA     -0.291600
     15 CED        75.8734   52.5895   34.0976 a3         1 CLA      0.005400
     16 CHA        74.7009   57.0904   34.7974 cs         1 CLA     -0.123800
     17 CHB        77.8110   60.2121   37.0551 aa         1 CLA     -0.291900
     18 CHC        74.8318   59.9451   40.9505 aa         1 CLA     -0.090400
     19 CHD        71.4800   57.4493   38.3950 aa         1 CLA     -0.052000
     20 CMA        79.3621   58.1210   35.1534 a3         1 CLA     -0.230700
     21 CMB        79.2049   61.9356   39.0647 a3         1 CLA     -0.180800
     22 CMC        72.4977   59.1785   43.0504 a3         1 CLA     -0.134000
     23 CMD        70.2590   55.3678   36.3017 a3         1 CLA     -0.141100
     24 C1         79.8464   55.2462   32.0493 a2         1 CLA      0.023000
     25 C1A        75.7759   57.8911   35.0156 ac         1 CLA     -0.015100
     26 C1B        77.2233   60.5471   38.2769 cr         1 CLA      0.054700
     27 C1C        73.5742   59.2827   40.6372 cn         1 CLA     -0.005600
     28 C1D        71.9933   57.2094   37.1082 ap         1 CLA     -0.047300
     29 O1A        78.0664   56.4886   30.0991 o2         1 CLA     -0.610800
     30 O1D        76.3658   54.9185   32.9121 o2         1 CLA     -0.558200
     31 C2         79.9287   54.7082   33.4612 c8         1 CLA     -0.325100
     32 C2A        76.9896   58.0042   34.0015 a1         1 CLA      0.098600
     33 C2B        77.8360   61.3374   39.2441 cb         1 CLA      0.088500
     34 C2C        72.5445   58.8566   41.5306 cb         1 CLA      0.053700
     35 C2D        71.5035   56.2656   36.1528 cb         1 CLA      0.058900
     36 O2A        79.0688   56.4350   32.1782 o1         1 CLA     -0.437200
     37 O2D        75.0707   53.7148   34.4105 o1         1 CLA     -0.357600
     38 C3         80.5916   53.5988   33.7967 c5         1 CLA      0.031200
     39 C3A        78.0156   58.8577   34.8384 a1         1 CLA      0.166800
     40 C3B        77.0826   61.1008   40.4107 cb         1 CLA      0.035000
     41 C3C        71.6274   58.0514   40.7358 cb         1 CLA     -0.089900
     42 C3D        72.5046   56.1893   35.1615 cb         1 CLA     -0.035900
     43 C4         79.9547   52.2404   33.7500 a3         1 CLA     -0.053300
     44 C4A        77.1847   59.3751   36.0710 ac         1 CLA      0.001800
     45 C4B        75.8834   60.3740   40.0851 cn         1 CLA     -0.020900
     46 C4C        72.0536   58.1591   39.4082 cr         1 CLA     -0.044400
     47 C4D        73.5261   57.1201   35.5508 c6         1 CLA     -0.046000
     48 C5         82.1066   53.6390   33.9287 a2         1 CLA     -0.070400
     49 C6         82.8662   54.9948   34.0239 a2         1 CLA      0.043900
     50 C7         83.0715   55.4131   35.4591 a2         1 CLA     -0.150000
     51 C8         83.2431   56.9852   35.5662 a1         1 CLA      0.064200
     52 C9         84.6049   57.3732   34.9508 a3         1 CLA     -0.259300
     53 C10        83.2910   57.4071   37.0450 a2         1 CLA     -0.071900
     54 C11        82.0622   57.1008   37.9318 a2         1 CLA      0.014500
     55 C12        82.2333   57.8129   39.2769 a2         1 CLA     -0.112100
     56 C13        81.2799   57.3468   40.4383 a1         1 CLA      0.089200
     57 C14        79.7686   57.5705   40.2949 a3         1 CLA     -0.239100
     58 C15        81.8809   57.6780   41.8602 a2         1 CLA     -0.102200
     59 C16        81.9013   59.1791   42.2682 a2         1 CLA      0.023900
     60 C17        82.5090   59.3328   43.6868 a2         1 CLA     -0.105700
     61 C18        82.9806   60.8533   44.0618 a1         1 CLA      0.206800
     62 C19        84.3115   61.2769   43.4133 a3         1 CLA     -0.280100
     63 C20        81.8230   61.8590   43.9062 a3         1 CLA     -0.280100
     64 NC         73.1796   58.9212   39.3166 nx         1 CLA     -0.309200
     65 MG         74.4881   59.1542   37.6035 mg         1 CLA      0.895000
     66 HMD3       70.3189   54.5710   35.5918 dc         1 CLA      0.064300
     67 HMD2       70.2741   54.8681   37.2859 dc         1 CLA      0.064300
     68 HMD1       69.2792   55.7618   36.1187 dc         1 CLA      0.064300
     69 HMC3       72.3788   58.2762   43.6459 dc         1 CLA      0.052100
     70 HMC2       73.3481   59.6555   43.4417 dc         1 CLA      0.052100
     71 HMC1       71.5159   59.7042   43.1970 dc         1 CLA      0.052100
     72 HMB3       79.8801   61.0774   39.0511 dc         1 CLA      0.063600
     73 HMB2       79.2765   62.3914   38.0985 dc         1 CLA      0.063600
     74 HMB1       79.3530   62.6802   39.9065 dc         1 CLA      0.063600
     75 HMA3       80.0245   57.6542   34.3743 dc         1 CLA      0.058300
     76 HMA2       79.9473   58.8185   35.7994 dc         1 CLA      0.058300
     77 HMA1       79.0388   57.1740   35.7472 dc         1 CLA      0.058300
     78 HED3       76.8477   52.8151   34.3953 dc         1 CLA      0.079300
     79 HED2       75.3754   51.7565   34.6518 dc         1 CLA      0.079300
     80 HED1       75.7878   52.3932   33.0018 dc         1 CLA      0.079300
     81 HBC3       70.1159   55.1415   42.0524 dc         1 CLA      0.016300
     82 HBC2       70.7898   55.1854   40.4897 dc         1 CLA      0.016300
     83 HBC1       71.8072   55.6547   41.8497 dc         1 CLA      0.016300
     84 HBB2       78.9491   62.3051   43.0663 da         1 CLA      0.183000
     85 HBB1       79.5325   61.1910   41.6063 da         1 CLA      0.183000
     86 HBA2       77.7160   58.9380   30.6962 dc         1 CLA      0.029400
     87 HBA1       78.7444   58.9325   32.0559 dc         1 CLA      0.029400
     88 HAC2       70.2403   57.6737   42.2898 dc         1 CLA      0.029300
     89 HAC1       69.6633   57.3460   40.5555 dc         1 CLA      0.029300
     90 HAA2       75.7774   58.1074   32.1530 dc         1 CLA      0.028700
     91 HAA1       76.5688   59.6014   32.6907 dc         1 CLA      0.028700
     92 H203       81.9652   62.9032   44.0752 dc         1 CLA      0.065600
     93 H202       81.4046   61.8442   42.9553 dc         1 CLA      0.065600
     94 H201       80.9706   61.4280   44.5006 dc         1 CLA      0.065600
     95 H193       84.6011   62.2289   43.7758 dc         1 CLA      0.065600
     96 H192       85.0747   60.5390   43.5799 dc         1 CLA      0.065600
     97 H191       84.1800   61.3001   42.3659 dc         1 CLA      0.065600
     98 H172       81.8079   58.9824   44.4476 dc         1 CLA      0.027600
     99 H171       83.3908   58.6836   43.7286 dc         1 CLA      0.027600
    100 H162       82.5564   59.6111   41.5353 dc         1 CLA      0.002900
    101 H161       80.9601   59.6861   42.3378 dc         1 CLA      0.002900
    102 H152       81.3576   57.0032   42.6628 dc         1 CLA      0.029100
    103 H151       82.9006   57.3327   41.9610 dc         1 CLA      0.029100
    104 H143       79.3030   57.3465   41.2614 dc         1 CLA      0.063600
    105 H142       79.5274   58.5948   40.0828 dc         1 CLA      0.063600
    106 H141       79.3373   56.9496   39.5588 dc         1 CLA      0.063600
    107 H122       83.1914   57.6097   39.6960 dc         1 CLA      0.032500
    108 H121       82.1344   58.8500   39.0882 dc         1 CLA      0.032500
    109 H112       81.2253   57.5644   37.4896 dc         1 CLA      0.006600
    110 H111       81.9093   56.0025   38.1498 dc         1 CLA      0.006600
    111 H102       84.1301   56.9559   37.6317 dc         1 CLA      0.024100
    112 H101       83.4301   58.4783   37.0477 dc         1 CLA      0.024100
    113 HHD        70.7026   56.8328   38.6882 da         1 CLA      0.174300
    114 HHC        75.0914   60.1325   42.0289 da         1 CLA      0.136800
    115 HHB        78.8295   60.4582   36.8438 da         1 CLA      0.138300
    116 HBD        74.4702   56.3554   32.7141 dc         1 CLA      0.107700
    117 HAB        76.6839   62.2542   42.3080 da         1 CLA      0.155200
    118 H93        84.8439   56.9335   34.0021 dc         1 CLA      0.069500
    119 H92        84.5923   58.5190   34.8950 dc         1 CLA      0.069500
    120 H91        85.4135   57.1237   35.6487 dc         1 CLA      0.069500
    121 H8         82.4315   57.6085   35.1981 dc         1 CLA      0.029300
    122 H72        82.3236   55.0717   36.1293 dc         1 CLA      0.044400
    123 H71        84.0435   54.8722   35.7745 dc         1 CLA      0.044400
    124 H62        83.8053   54.8710   33.4942 dc         1 CLA      0.015600
    125 H61        82.2495   55.7730   33.5273 dc         1 CLA      0.015600
    126 H52        82.4633   52.9484   34.7081 dc         1 CLA      0.033200
    127 H51        82.5548   53.1757   33.0180 dc         1 CLA      0.033200
    128 H43        78.9060   52.3008   33.4669 dc         1 CLA      0.037000
    129 H42        80.5332   51.7669   32.9804 dc         1 CLA      0.037000
    130 H41        80.0118   51.7651   34.7832 dc         1 CLA      0.037000
    131 H3A        78.3345   59.7320   34.2686 dc         1 CLA      0.041100
    132 H2A        77.4805   57.0050   33.8961 dc         1 CLA      0.083100
    133 H2         79.4835   55.2525   34.2395 da         1 CLA      0.180900
    134 H18        83.3377   60.8684   45.1114 dc         1 CLA     -0.003900
    135 H13        81.4343   56.2526   40.3731 dc         1 CLA      0.019700
    136 H12        79.3119   54.5065   31.4851 dc         1 CLA      0.120400
    137 H11        80.8494   55.4789   31.6743 dc         1 CLA      0.120400
    138 C1         67.2688   61.3924   49.2318 Z1         2 LUT      0.509236
    139 C2         67.2405   62.5563   50.2791 Z2         2 LUT     -0.434695
    140 C3         65.9244   63.3223   50.4334 Z3         2 LUT      0.437453
    141 O3         66.4343   64.6102   50.8129 S1         2 LUT     -0.547129
    142 C4         65.0560   63.3730   49.1720 Z4         2 LUT     -0.468603
    143 C5         65.6617   62.9153   47.8551 Z5         2 LUT      0.279246
    144 C6         66.7221   62.0048   47.8527 Z6         2 LUT     -0.305473
    145 C7         67.4375   61.7517   46.6106 Z7         2 LUT      0.069402
    146 C8         68.7193   62.0350   46.1535 Z8         2 LUT     -0.191631
    147 C9         69.1396   61.7788   44.7878 Z9         2 LUT      0.196698
    148 C10        70.1776   62.5416   44.3006 Y1         2 LUT     -0.208611
    149 C11        70.7981   62.5890   43.0315 Y2         2 LUT      0.030784
    150 C12        71.9886   63.1909   42.7282 Y3         2 LUT     -0.220316
    151 C13        72.7561   63.3601   41.5037 Y4         2 LUT      0.215937
    152 C14        74.0066   63.9867   41.5605 Y5         2 LUT     -0.185793
    153 C15        74.8745   64.0285   40.4275 Y6         2 LUT     -0.057835
    154 C16        66.3138   60.2464   49.7726 Y7         2 LUT     -0.405615
    155 C17        68.7365   60.8216   49.1972 Y7         2 LUT     -0.405615
    156 C18        65.4837   63.9077   46.7267 Y9         2 LUT     -0.369639
    157 C19        68.4377   60.6669   43.9994 W1         2 LUT     -0.333362
    158 C20        72.0786   62.7019   40.2820 W2         2 LUT     -0.323439
    159 C21        85.6638   65.3270   33.4755 Z1         2 LUT      0.406104
    160 C22        86.3671   64.6062   32.3305 Z2         2 LUT     -0.404965
    161 C23        86.6066   65.3456   31.0096 Z3         2 LUT      0.391255
    162 O23        86.8149   64.3550   30.0194 S1         2 LUT     -0.528210
    163 C24        85.5416   66.3233   30.7885 W6         2 LUT     -0.258361
    164 C25        84.4741   66.5769   31.5803 Z5         2 LUT      0.133546
    165 C26        84.3102   65.7697   32.9156 W8         2 LUT     -0.147008
    166 C27        83.5294   66.3494   34.1157 Z7         2 LUT      0.023843
    167 C28        82.4637   65.8305   34.7864 Z8         2 LUT     -0.216987
    168 C29        81.9912   66.2372   36.0759 Z9         2 LUT      0.206524
    169 C30        80.8057   65.7094   36.3964 Y1         2 LUT     -0.215556
    170 C31        80.2408   65.9048   37.7213 Y2         2 LUT      0.025142
    171 C32        79.1278   65.2558   38.1990 Y3         2 LUT     -0.212209
    172 C33        78.3674   65.3770   39.4592 Y4         2 LUT      0.240937
    173 C34        77.0877   64.7330   39.5426 Y5         2 LUT     -0.218862
    174 C35        76.0646   64.6840   40.6036 Y6         2 LUT     -0.023547
    175 C36        86.7784   66.4036   33.8905 Y7         2 LUT     -0.393485
    176 C37        85.6540   64.2740   34.6769 Y7         2 LUT     -0.393485
    177 C38        83.6199   67.7233   31.2719 Y9         2 LUT     -0.387526
    178 C39        82.9616   67.0331   37.0416 W1         2 LUT     -0.322618
    179 C40        78.9538   66.1148   40.6329 W2         2 LUT     -0.358472
    180 H403       79.1056   67.1727   40.4095 R7         2 LUT      0.097720
    181 H402       78.2618   66.0846   41.4433 R7         2 LUT      0.097720
    182 H401       79.8757   65.7364   41.0211 R7         2 LUT      0.097720
    183 H393       82.7122   68.1130   37.0251 R4         2 LUT      0.082505
    184 H392       82.8954   66.6342   38.0144 R4         2 LUT      0.082505
    185 H391       84.0237   67.0198   36.7962 R4         2 LUT      0.082505
    186 H383       82.8805   67.3341   30.5011 R1         2 LUT      0.104030
    187 H382       83.0180   68.1628   32.0655 R1         2 LUT      0.104030
    188 H381       84.2689   68.4208   30.8207 R1         2 LUT      0.104030
    189 H373       84.9777   63.4418   34.5134 T4         2 LUT      0.089537
    190 H372       86.6513   63.9556   34.9268 T4         2 LUT      0.089537
    191 H371       85.3071   64.7203   35.6136 T4         2 LUT      0.089537
    192 H363       87.7679   65.9379   33.8632 T4         2 LUT      0.089537
    193 H362       86.6687   67.3716   33.3410 T4         2 LUT      0.089537
    194 H361       86.5854   66.6603   34.9003 T4         2 LUT      0.089537
    195 H222       87.3972   64.1206   32.6448 U2         2 LUT      0.127376
    196 H221       85.5631   63.9388   32.0254 U2         2 LUT      0.127376
    197 H203       72.6219   62.7962   39.3803 R7         2 LUT      0.087068
    198 H202       71.9465   61.6091   40.4328 R7         2 LUT      0.087068
    199 H201       71.1466   63.1428   40.0837 R7         2 LUT      0.087068
    200 H193       67.9019   60.0104   44.5845 R4         2 LUT      0.089716
    201 H192       67.8722   61.0212   43.1247 R4         2 LUT      0.089716
    202 H191       69.2442   60.0097   43.5095 R4         2 LUT      0.089716
    203 H183       65.4940   63.4242   45.6981 R1         2 LUT      0.094572
    204 H182       64.5619   64.5206   46.7243 R1         2 LUT      0.094572
    205 H181       66.2505   64.6686   46.8664 R1         2 LUT      0.094572
    206 H173       69.4919   61.5603   48.7388 T4         2 LUT      0.093752
    207 H172       69.1237   60.5630   50.2146 T4         2 LUT      0.093752
    208 H171       68.7394   59.9787   48.5120 T4         2 LUT      0.093752
    209 H163       66.6515   59.8433   50.7217 T4         2 LUT      0.093752
    210 H162       65.3862   60.6863   50.1126 T4         2 LUT      0.093752
    211 H161       66.0403   59.4476   49.1346 T4         2 LUT      0.093752
    212 HO3        65.8488   65.1238   51.3479 Q1         2 LUT      0.300121
    213 H8         69.4436   62.5621   46.8000 U7         2 LUT      0.080784
    214 H7         66.7540   61.4618   45.7885 U6         2 LUT      0.042190
    215 H42        64.0242   63.0012   49.2964 U5         2 LUT      0.145166
    216 H41        64.8827   64.4878   49.0322 U5         2 LUT      0.145166
    217 H35        76.2314   65.2409   41.5812 T3         2 LUT      0.077919
    218 H34        76.7831   64.3184   38.5689 T2         2 LUT      0.073626
    219 H32        78.6471   64.6398   37.4521 T1         2 LUT      0.092510
    220 H31        80.6963   66.5768   38.5305 U9         2 LUT      0.070048
    221 H30        80.1494   65.1061   35.7291 U8         2 LUT      0.085442
    222 H3         65.4152   62.8544   51.2911 U3         2 LUT     -0.031596
    223 H28        81.9951   64.9865   34.3207 U7         2 LUT      0.084728
    224 H27        84.0769   67.1088   34.5955 U6         2 LUT      0.087291
    225 H26        83.7586   64.8971   32.5453 Q6         2 LUT      0.075325
    226 H24        85.5893   66.8711   29.9032 Q5         2 LUT      0.094482
    227 H23        87.5410   65.8689   31.0918 U3         2 LUT     -0.024869
    228 H22        67.2701   62.1178   51.3363 U2         2 LUT      0.127376
    229 H21        68.0529   63.1723   50.0035 U2         2 LUT      0.127376
    230 H15        74.5583   63.4997   39.4844 T3         2 LUT      0.093200
    231 H14        74.3062   64.2775   42.5751 T2         2 LUT      0.068865
    232 H12        72.5454   63.7043   43.5233 T1         2 LUT      0.095507
    233 H11        70.2869   62.0532   42.1680 U9         2 LUT      0.068930
    234 H10        70.6257   63.2228   45.0324 U8         2 LUT      0.083911
    235 H1         87.0652   64.8019   29.1640 Q1         2 LUT      0.297311
@<TRIPOS>BOND
    1     6     1 1
    2     7     2 1
    3     8     3 1
    4     9     4 1
    5    11     4 1
    6    12     6 1
    7    13     9 1
    8    16     9 1
    9    25     5 1
   10    25    16 1
   11    26    10 1
   12    26    17 1
   13    27    18 1
   14    28    14 1
   15    28    19 1
   16    29    12 1
   17    30    13 1
   18    31    24 1
   19    32     1 1
   20    32    25 1
   21    33    21 1
   22    33    26 1
   23    34    22 1
   24    34    27 1
   25    35    23 1
   26    35    28 1
   27    36    12 1
   28    36    24 1
   29    37    13 1
   30    37    15 1
   31    38    31 1
   32    39    20 1
   33    39    32 1
   34    40     2 1
   35    40    33 1
   36    41     3 1
   37    41    34 1
   38    42     4 1
   39    42    35 1
   40    43    38 1
   41    44     5 1
   42    44    17 1
   43    44    39 1
   44    45    10 1
   45    45    18 1
   46    45    40 1
   47    46    19 1
   48    46    41 1
   49    47    14 1
   50    47    16 1
   51    47    42 1
   52    48    38 1
   53    49    48 1
   54    50    49 1
   55    51    50 1
   56    52    51 1
   57    53    51 1
   58    54    53 1
   59    55    54 1
   60    56    55 1
   61    57    56 1
   62    58    56 1
   63    59    58 1
   64    60    59 1
   65    61    60 1
   66    62    61 1
   67    63    61 1
   68    64    27 1
   69    64    46 1
   70    65     5 1
   71    65    10 1
   72    65    64 1
   73    65    14 1
   74    66    23 1
   75    67    23 1
   76    68    23 1
   77    69    22 1
   78    70    22 1
   79    71    22 1
   80    72    21 1
   81    73    21 1
   82    74    21 1
   83    75    20 1
   84    76    20 1
   85    77    20 1
   86    78    15 1
   87    79    15 1
   88    80    15 1
   89    81     8 1
   90    82     8 1
   91    83     8 1
   92    84     7 1
   93    85     7 1
   94    86     6 1
   95    87     6 1
   96    88     3 1
   97    89     3 1
   98    90     1 1
   99    91     1 1
  100    92    63 1
  101    93    63 1
  102    94    63 1
  103    95    62 1
  104    96    62 1
  105    97    62 1
  106    98    60 1
  107    99    60 1
  108   100    59 1
  109   101    59 1
  110   102    58 1
  111   103    58 1
  112   104    57 1
  113   105    57 1
  114   106    57 1
  115   107    55 1
  116   108    55 1
  117   109    54 1
  118   110    54 1
  119   111    53 1
  120   112    53 1
  121   113    19 1
  122   114    18 1
  123   115    17 1
  124   116     9 1
  125   117     2 1
  126   118    52 1
  127   119    52 1
  128   120    52 1
  129   121    51 1
  130   122    50 1
  131   123    50 1
  132   124    49 1
  133   125    49 1
  134   126    48 1
  135   127    48 1
  136   128    43 1
  137   129    43 1
  138   130    43 1
  139   131    39 1
  140   132    32 1
  141   133    31 1
  142   134    61 1
  143   135    56 1
  144   136    24 1
  145   137    24 1
  146   139   138 1
  147   140   139 1
  148   141   140 1
  149   142   140 1
  150   143   142 1
  151   144   138 1
  152   144   143 1
  153   145   144 1
  154   146   145 1
  155   147   146 1
  156   148   147 1
  157   149   148 1
  158   150   149 1
  159   151   150 1
  160   152   151 1
  161   153   152 1
  162   154   138 1
  163   155   138 1
  164   156   143 1
  165   157   147 1
  166   158   151 1
  167   160   159 1
  168   161   160 1
  169   162   161 1
  170   163   161 1
  171   164   163 1
  172   165   159 1
  173   165   164 1
  174   166   165 1
  175   167   166 1
  176   168   167 1
  177   169   168 1
  178   170   169 1
  179   171   170 1
  180   172   171 1
  181   173   172 1
  182   174   153 1
  183   174   173 1
  184   175   159 1
  185   176   159 1
  186   177   164 1
  187   178   168 1
  188   179   172 1
  189   180   179 1
  190   181   179 1
  191   182   179 1
  192   183   178 1
  193   184   178 1
  194   185   178 1
  195   186   177 1
  196   187   177 1
  197   188   177 1
  198   189   176 1
  199   190   176 1
  200   191   176 1
  201   192   175 1
  202   193   175 1
  203   194   175 1
  204   195   160 1
  205   196   160 1
  206   197   158 1
  207   198   158 1
  208   199   158 1
  209   200   157 1
  210   201   157 1
  211   202   157 1
  212   203   156 1
  213   204   156 1
  214   205   156 1
  215   206   155 1
  216   207   155 1
  217   208   155 1
  218   209   154 1
  219   210   154 1
  220   211   154 1
  221   212   141 1
  222   213   146 1
  223   214   145 1
  224   215   142 1
  225   216   142 1
  226   217   174 1
  227   218   173 1
  228   219   171 1
  229   220   170 1
  230   221   169 1
  231   222   140 1
  232   223   167 1
  233   224   166 1
  234   225   165 1
  235   226   163 1
  236   227   161 1
  237   228   139 1
  238   229   139 1
  239   230   153 1
  240   231   152 1
  241   232   150 1
  242   233   149 1
  243   234   148 1
  244   235   162 1
  245   65    153 1
  246   65    174 1
@<TRIPOS>SUBSTRUCTURE
      1 CLA               1 ****               0 ****  **** 
      2 LUT             138 ****               0 ****  **** 
