@<TRIPOS>MOLECULE
Cpptraj generated mol2 file.
  235   246     2     0     0
SMALL
USER_CHARGES


@<TRIPOS>ATOM
      1 CAA        78.7196   58.3551   34.5153 a2         1 CLA     -0.055900
      2 CAB        79.9003   61.8224   43.5196 c8         1 CLA     -0.148500
      3 CAC        72.6521   58.5674   43.6152 a2         1 CLA     -0.012600
      4 CAD        74.3832   56.2745   35.8083 ck         1 CLA      0.398800
      5 NA         78.0435   58.5779   38.1071 ns         1 CLA     -0.225500
      6 CBA        79.8843   58.1780   33.5158 a2         1 CLA     -0.135000
      7 CBB        80.7749   62.7736   43.7894 c0         1 CLA     -0.395200
      8 CBC        72.8113   57.0495   43.9371 a3         1 CLA     -0.037700
      9 CBD        75.8746   56.5469   35.4274 a1         1 CLA     -0.053900
     10 NB         78.2798   60.1816   40.5455 nm         1 CLA     -0.295700
     11 OBD        73.6219   55.6646   35.0326 o2         1 CLA     -0.494600
     12 CGA        80.3960   56.8014   33.1303 c4         1 CLA      0.827000
     13 CGD        76.6670   55.3309   35.2873 c4         1 CLA      0.655300
     14 ND         75.2335   58.1454   38.6411 nm         1 CLA     -0.291600
     15 CED        77.1776   53.0903   35.8127 a3         1 CLA      0.005400
     16 CHA        76.4241   57.4446   36.5967 cs         1 CLA     -0.123800
     17 CHB        80.0309   59.7526   38.9550 aa         1 CLA     -0.291900
     18 CHC        77.0987   60.6488   42.7317 aa         1 CLA     -0.090400
     19 CHD        73.4656   58.1326   40.4913 aa         1 CLA     -0.052000
     20 CMA        81.4074   57.6701   37.0280 a3         1 CLA     -0.230700
     21 CMB        81.7839   61.1800   40.8601 a3         1 CLA     -0.180800
     22 CMC        74.9724   60.3496   44.9189 a3         1 CLA     -0.134000
     23 CMD        71.8638   56.4528   38.1367 a3         1 CLA     -0.141100
     24 C1         81.5081   54.7812   33.9374 a2         1 CLA      0.023000
     25 C1A        77.7743   57.8960   36.9240 ac         1 CLA     -0.015100
     26 C1B        79.5638   60.2596   40.1392 cr         1 CLA      0.054700
     27 C1C        75.8181   60.0590   42.4919 cn         1 CLA     -0.005600
     28 C1D        73.9719   57.7734   39.1604 ap         1 CLA     -0.047300
     29 O1A        80.4642   56.4252   31.9811 o2         1 CLA     -0.610800
     30 O1D        77.5549   55.3097   34.4549 o2         1 CLA     -0.558200
     31 C2         82.3319   54.4981   35.2268 c8         1 CLA     -0.325100
     32 C2A        78.9659   57.7669   35.9627 a1         1 CLA      0.098600
     33 C2B        80.3547   60.9529   41.1220 cb         1 CLA      0.088500
     34 C2C        74.8030   59.9076   43.4802 cb         1 CLA      0.053700
     35 C2D        73.2431   57.0258   38.0911 cb         1 CLA      0.058900
     36 O2A        80.8941   56.0691   34.1178 o1         1 CLA     -0.437200
     37 O2D        76.4467   54.2946   36.2193 o1         1 CLA     -0.357600
     38 C3         83.5029   53.8888   35.3601 c5         1 CLA      0.031200
     39 C3A        80.0683   58.4761   36.8041 a1         1 CLA      0.166800
     40 C3B        79.5299   61.2826   42.2131 cb         1 CLA      0.035000
     41 C3C        73.7811   59.1754   42.8794 cb         1 CLA     -0.089900
     42 C3D        74.1899   56.8584   37.1088 cb         1 CLA     -0.035900
     43 C4         83.7065   52.3882   35.4857 a3         1 CLA     -0.053300
     44 C4A        79.3453   58.9394   38.0206 ac         1 CLA      0.001800
     45 C4B        78.2273   60.7061   41.8491 cn         1 CLA     -0.020900
     46 C4C        74.1491   58.8547   41.5375 cr         1 CLA     -0.044400
     47 C4D        75.3366   57.5568   37.4549 c6         1 CLA     -0.046000
     48 C5         84.7259   54.8225   35.2663 a2         1 CLA     -0.070400
     49 C6         84.9924   56.1348   36.0712 a2         1 CLA      0.043900
     50 C7         85.2760   56.0268   37.5435 a2         1 CLA     -0.150000
     51 C8         85.6504   57.3697   38.2628 a1         1 CLA      0.064200
     52 C9         86.8991   58.0630   37.7675 a3         1 CLA     -0.259300
     53 C10        85.8699   57.0868   39.7584 a2         1 CLA     -0.071900
     54 C11        86.1676   58.2091   40.7339 a2         1 CLA      0.014500
     55 C12        86.0277   57.7327   42.2103 a2         1 CLA     -0.112100
     56 C13        86.3116   58.7332   43.3936 a1         1 CLA      0.089200
     57 C14        87.8254   59.0175   43.6103 a3         1 CLA     -0.239100
     58 C15        85.6734   58.1792   44.7260 a2         1 CLA     -0.102200
     59 C16        85.6567   59.2094   45.8945 a2         1 CLA      0.023900
     60 C17        84.7840   58.7777   47.0957 a2         1 CLA     -0.105700
     61 C18        84.9645   59.5835   48.4776 a1         1 CLA      0.206800
     62 C19        84.7005   61.1221   48.3624 a3         1 CLA     -0.280100
     63 C20        84.3626   58.8320   49.7249 a3         1 CLA     -0.280100
     64 NC         75.4010   59.4885   41.2878 nx         1 CLA     -0.309200
     65 MG         76.7439   59.2695   39.5584 mg         1 CLA      0.895000
     66 HMD3       71.7190   55.3843   37.9405 dc         1 CLA      0.064300
     67 HMD2       71.3883   56.6856   39.1174 dc         1 CLA      0.064300
     68 HMD1       71.2501   57.0324   37.4566 dc         1 CLA      0.064300
     69 HMC3       74.1274   59.9803   45.5431 dc         1 CLA      0.052100
     70 HMC2       75.8275   59.7980   45.3561 dc         1 CLA      0.052100
     71 HMC1       75.1488   61.4010   45.0675 dc         1 CLA      0.052100
     72 HMB3       82.1939   60.3043   40.4021 dc         1 CLA      0.063600
     73 HMB2       81.8882   61.9901   40.1676 dc         1 CLA      0.063600
     74 HMB1       82.3231   61.4247   41.7826 dc         1 CLA      0.063600
     75 HMA3       82.2182   58.3367   37.2293 dc         1 CLA      0.058300
     76 HMA2       81.1745   56.8284   37.7112 dc         1 CLA      0.058300
     77 HMA1       81.6629   57.2469   36.0111 dc         1 CLA      0.058300
     78 HED3       76.8145   52.6825   34.8893 dc         1 CLA      0.079300
     79 HED2       78.3036   53.2262   35.8410 dc         1 CLA      0.079300
     80 HED1       76.9206   52.3940   36.6494 dc         1 CLA      0.079300
     81 HBC3       72.2021   56.6604   44.7519 dc         1 CLA      0.016300
     82 HBC2       72.6483   56.4603   43.0321 dc         1 CLA      0.016300
     83 HBC1       73.8665   56.8144   44.1833 dc         1 CLA      0.016300
     84 HBB2       81.0113   63.0728   44.8040 da         1 CLA      0.183000
     85 HBB1       81.3447   63.1893   42.9072 da         1 CLA      0.183000
     86 HBA2       79.7532   58.7810   32.6214 dc         1 CLA      0.029400
     87 HBA1       80.6582   58.6874   34.0976 dc         1 CLA      0.029400
     88 HAC2       72.5145   59.0857   44.6147 dc         1 CLA      0.029300
     89 HAC1       71.7118   58.6535   43.0594 dc         1 CLA      0.029300
     90 HAA2       77.9145   57.8360   34.0010 dc         1 CLA      0.028700
     91 HAA1       78.4873   59.4330   34.6016 dc         1 CLA      0.028700
     92 H203       83.3254   58.5196   49.5063 dc         1 CLA      0.065600
     93 H202       84.9589   57.9813   49.8095 dc         1 CLA      0.065600
     94 H201       84.4145   59.3863   50.6303 dc         1 CLA      0.065600
     95 H193       85.2411   61.5609   49.2399 dc         1 CLA      0.065600
     96 H192       85.0558   61.5470   47.4088 dc         1 CLA      0.065600
     97 H191       83.6463   61.4470   48.4565 dc         1 CLA      0.065600
     98 H172       83.7083   58.9135   46.8372 dc         1 CLA      0.027600
     99 H171       84.9482   57.7209   47.3591 dc         1 CLA      0.027600
    100 H162       86.6678   59.2381   46.3454 dc         1 CLA      0.002900
    101 H161       85.4427   60.1404   45.4718 dc         1 CLA      0.002900
    102 H152       84.6409   57.9673   44.5824 dc         1 CLA      0.029100
    103 H151       86.1431   57.2261   45.0472 dc         1 CLA      0.029100
    104 H143       88.0418   59.8503   44.2789 dc         1 CLA      0.063600
    105 H142       88.3524   58.1768   43.9263 dc         1 CLA      0.063600
    106 H141       88.3136   59.3151   42.6256 dc         1 CLA      0.063600
    107 H122       85.0981   57.3168   42.3931 dc         1 CLA      0.032500
    108 H121       86.7774   56.9533   42.2579 dc         1 CLA      0.032500
    109 H112       87.1629   58.5712   40.5784 dc         1 CLA      0.006600
    110 H111       85.3593   58.8967   40.5337 dc         1 CLA      0.006600
    111 H102       85.0067   56.5234   40.1076 dc         1 CLA      0.024100
    112 H101       86.7485   56.4960   39.8881 dc         1 CLA      0.024100
    113 HHD        72.4686   57.6929   40.7513 da         1 CLA      0.174300
    114 HHC        77.1910   61.0552   43.7643 da         1 CLA      0.136800
    115 HHB        81.0351   60.1221   38.7145 da         1 CLA      0.138300
    116 HBD        75.9032   57.1487   34.5487 dc         1 CLA      0.107700
    117 HAB        79.4055   61.3285   44.3582 da         1 CLA      0.155200
    118 H93        87.7401   57.4330   37.8426 dc         1 CLA      0.069500
    119 H92        86.6614   58.2754   36.7222 dc         1 CLA      0.069500
    120 H91        87.0799   58.9601   38.2869 dc         1 CLA      0.069500
    121 H8         84.7713   57.9908   38.3708 dc         1 CLA      0.029300
    122 H72        84.4531   55.5781   38.1239 dc         1 CLA      0.044400
    123 H71        86.1660   55.4080   37.7377 dc         1 CLA      0.044400
    124 H62        85.7306   56.6813   35.5408 dc         1 CLA      0.015600
    125 H61        84.0618   56.7381   36.0650 dc         1 CLA      0.015600
    126 H52        85.6464   54.2859   35.4502 dc         1 CLA      0.033200
    127 H51        84.8167   54.9474   34.2160 dc         1 CLA      0.033200
    128 H43        84.1284   52.2537   36.4579 dc         1 CLA      0.037000
    129 H42        82.8022   51.7542   35.4935 dc         1 CLA      0.037000
    130 H41        84.4375   52.0032   34.7015 dc         1 CLA      0.037000
    131 H3A        80.3191   59.4634   36.2322 dc         1 CLA      0.041100
    132 H2A        79.1807   56.7595   35.9575 dc         1 CLA      0.083100
    133 H2         81.7806   54.7671   36.1623 da         1 CLA      0.180900
    134 H18        86.0263   59.4909   48.6253 dc         1 CLA     -0.003900
    135 H13        85.8594   59.6593   43.0238 dc         1 CLA      0.019700
    136 H12        80.6980   54.0481   33.9147 dc         1 CLA      0.120400
    137 H11        82.1312   54.6811   33.0232 dc         1 CLA      0.120400
    138 C1         68.4907   61.4811   50.1070 Z1         2 LUT      0.509236
    139 C2         67.1013   61.3575   50.7271 Z2         2 LUT     -0.434695
    140 C3         66.4266   62.6413   51.1654 Z3         2 LUT      0.437453
    141 O3         66.8071   63.1317   52.4418 S1         2 LUT     -0.547129
    142 C4         66.6058   63.7413   50.1250 Z4         2 LUT     -0.468603
    143 C5         67.4170   63.4193   48.9415 Z5         2 LUT      0.279246
    144 C6         68.3630   62.4570   48.9031 Z6         2 LUT     -0.305473
    145 C7         68.8272   61.9122   47.5861 Z7         2 LUT      0.069402
    146 C8         69.9299   62.4267   46.9602 Z8         2 LUT     -0.191631
    147 C9         70.5168   62.1277   45.6585 Z9         2 LUT      0.196698
    148 C10        71.5788   62.8242   45.1439 Y1         2 LUT     -0.208611
    149 C11        72.2900   62.6521   43.8965 Y2         2 LUT      0.030784
    150 C12        73.4352   63.4689   43.6871 Y3         2 LUT     -0.220316
    151 C13        74.2615   63.4704   42.4550 Y4         2 LUT      0.215937
    152 C14        75.4363   64.2263   42.4238 Y5         2 LUT     -0.185793
    153 C15        76.5695   64.1443   41.5982 Y6         2 LUT     -0.057835
    154 C16        69.0624   60.1358   49.7674 Y7         2 LUT     -0.405615
    155 C17        69.5334   62.0589   51.1819 Y7         2 LUT     -0.405615
    156 C18        66.9434   64.3198   47.8400 Y9         2 LUT     -0.369639
    157 C19        69.8107   61.1642   44.8158 W1         2 LUT     -0.333362
    158 C20        73.6366   62.9513   41.1974 W2         2 LUT     -0.323439
    159 C21        87.7657   66.0490   35.0306 Z1         2 LUT      0.406104
    160 C22        88.5935   65.6294   33.8363 Z2         2 LUT     -0.404965
    161 C23        88.5537   66.4795   32.6403 Z3         2 LUT      0.391255
    162 O23        89.1792   65.6746   31.7160 S1         2 LUT     -0.528210
    163 C24        87.2011   67.0961   32.3709 W6         2 LUT     -0.258361
    164 C25        86.2313   67.2366   33.2551 Z5         2 LUT      0.133546
    165 C26        86.2581   66.4492   34.5935 W8         2 LUT     -0.147008
    166 C27        85.5153   66.9762   35.7876 Z7         2 LUT      0.023843
    167 C28        84.4532   66.3325   36.3588 Z8         2 LUT     -0.216987
    168 C29        83.7279   66.8958   37.4905 Z9         2 LUT      0.206524
    169 C30        82.6577   66.1137   37.9035 Y1         2 LUT     -0.215556
    170 C31        81.8606   66.2996   39.1067 Y2         2 LUT      0.025142
    171 C32        80.7556   65.5113   39.5044 Y3         2 LUT     -0.212209
    172 C33        79.8538   65.7430   40.5127 Y4         2 LUT      0.240937
    173 C34        78.8738   64.8564   40.7434 Y5         2 LUT     -0.218862
    174 C35        77.7017   65.0056   41.5919 Y6         2 LUT     -0.023547
    175 C36        88.5226   67.1692   35.6301 Y7         2 LUT     -0.393485
    176 C37        87.7299   64.8737   36.1019 Y7         2 LUT     -0.393485
    177 C38        84.9910   68.0683   32.9920 Y9         2 LUT     -0.387526
    178 C39        84.1902   68.2339   37.9938 W1         2 LUT     -0.322618
    179 C40        80.2005   66.7980   41.4959 W2         2 LUT     -0.358472
    180 H403       80.0117   67.7283   41.0215 R7         2 LUT      0.097720
    181 H402       79.6702   66.6725   42.3746 R7         2 LUT      0.097720
    182 H401       81.2477   66.7893   41.7553 R7         2 LUT      0.097720
    183 H393       85.1786   68.3211   38.4971 R4         2 LUT      0.082505
    184 H392       84.3707   68.9474   37.1698 R4         2 LUT      0.082505
    185 H391       83.4950   68.7846   38.6787 R4         2 LUT      0.082505
    186 H383       85.1601   68.7765   32.1807 R1         2 LUT      0.104030
    187 H382       84.1692   67.3116   32.7199 R1         2 LUT      0.104030
    188 H381       84.7608   68.6087   33.9292 R1         2 LUT      0.104030
    189 H373       87.5109   63.9428   35.6586 T4         2 LUT      0.089537
    190 H372       88.6566   64.7708   36.5695 T4         2 LUT      0.089537
    191 H371       86.9991   65.1976   36.8148 T4         2 LUT      0.089537
    192 H363       88.0615   67.5779   36.5551 T4         2 LUT      0.089537
    193 H362       89.5563   66.9889   35.6803 T4         2 LUT      0.089537
    194 H361       88.4352   68.0600   34.9421 T4         2 LUT      0.089537
    195 H222       89.5330   65.3130   34.1711 U2         2 LUT      0.127376
    196 H221       88.0141   64.8420   33.3636 U2         2 LUT      0.127376
    197 H203       74.3460   63.1645   40.3647 R7         2 LUT      0.087068
    198 H202       73.5168   61.8048   41.1378 R7         2 LUT      0.087068
    199 H201       72.8087   63.5581   40.8882 R7         2 LUT      0.087068
    200 H193       69.2279   61.6693   44.0547 R4         2 LUT      0.089716
    201 H192       70.5204   60.6126   44.2418 R4         2 LUT      0.089716
    202 H191       69.3294   60.3699   45.4139 R4         2 LUT      0.089716
    203 H183       65.8588   64.4624   47.8826 R1         2 LUT      0.094572
    204 H182       67.4716   65.2764   47.8074 R1         2 LUT      0.094572
    205 H181       67.1933   63.8615   46.8972 R1         2 LUT      0.094572
    206 H173       70.3530   62.4674   50.6211 T4         2 LUT      0.093752
    207 H172       69.2446   63.0317   51.6775 T4         2 LUT      0.093752
    208 H171       69.9345   61.3181   51.8545 T4         2 LUT      0.093752
    209 H163       68.3446   59.4926   49.2903 T4         2 LUT      0.093752
    210 H162       69.9177   60.2670   49.2666 T4         2 LUT      0.093752
    211 H161       69.5102   59.6948   50.6448 T4         2 LUT      0.093752
    212 HO3        66.6962   62.4939   53.2320 Q1         2 LUT      0.300121
    213 H8         70.4077   63.2035   47.5870 U7         2 LUT      0.080784
    214 H7         68.2494   61.1672   46.9833 U6         2 LUT      0.042190
    215 H42        65.5680   63.8315   49.8015 U5         2 LUT      0.145166
    216 H41        66.9611   64.6661   50.5998 U5         2 LUT      0.145166
    217 H35        77.6308   65.7686   42.3507 T3         2 LUT      0.077919
    218 H34        78.7927   63.9182   40.1662 T2         2 LUT      0.073626
    219 H32        80.5943   64.6448   38.9019 T1         2 LUT      0.092510
    220 H31        81.9826   67.2669   39.6374 U9         2 LUT      0.070048
    221 H30        82.4676   65.1137   37.3802 U8         2 LUT      0.085442
    222 H3         65.3348   62.4992   51.3824 U3         2 LUT     -0.031596
    223 H28        84.0294   65.4808   35.7823 U7         2 LUT      0.084728
    224 H27        85.8843   67.9537   36.0773 U6         2 LUT      0.087291
    225 H26        85.7173   65.6063   34.1593 Q6         2 LUT      0.075325
    226 H24        87.1021   67.5717   31.3603 Q5         2 LUT      0.094482
    227 H23        89.2074   67.3623   32.8587 U3         2 LUT     -0.024869
    228 H22        66.5067   60.6854   49.9868 U2         2 LUT      0.127376
    229 H21        67.2473   60.5436   51.4699 U2         2 LUT      0.127376
    230 H15        76.7426   63.3419   40.8768 T3         2 LUT      0.093200
    231 H14        75.6261   64.6838   43.4029 T2         2 LUT      0.068865
    232 H12        73.7351   64.1604   44.3994 T1         2 LUT      0.095507
    233 H11        71.9080   61.8895   43.2250 U9         2 LUT      0.068930
    234 H10        72.0136   63.5846   45.8490 U8         2 LUT      0.083911
    235 H1         89.0242   65.9554   30.7805 Q1         2 LUT      0.297311
@<TRIPOS>BOND
    1     6     1 1
    2     7     2 1
    3     8     3 1
    4     9     4 1
    5    11     4 1
    6    12     6 1
    7    13     9 1
    8    16     9 1
    9    25     5 1
   10    25    16 1
   11    26    10 1
   12    26    17 1
   13    27    18 1
   14    28    14 1
   15    28    19 1
   16    29    12 1
   17    30    13 1
   18    31    24 1
   19    32     1 1
   20    32    25 1
   21    33    21 1
   22    33    26 1
   23    34    22 1
   24    34    27 1
   25    35    23 1
   26    35    28 1
   27    36    12 1
   28    36    24 1
   29    37    13 1
   30    37    15 1
   31    38    31 1
   32    39    20 1
   33    39    32 1
   34    40     2 1
   35    40    33 1
   36    41     3 1
   37    41    34 1
   38    42     4 1
   39    42    35 1
   40    43    38 1
   41    44     5 1
   42    44    17 1
   43    44    39 1
   44    45    10 1
   45    45    18 1
   46    45    40 1
   47    46    19 1
   48    46    41 1
   49    47    14 1
   50    47    16 1
   51    47    42 1
   52    48    38 1
   53    49    48 1
   54    50    49 1
   55    51    50 1
   56    52    51 1
   57    53    51 1
   58    54    53 1
   59    55    54 1
   60    56    55 1
   61    57    56 1
   62    58    56 1
   63    59    58 1
   64    60    59 1
   65    61    60 1
   66    62    61 1
   67    63    61 1
   68    64    27 1
   69    64    46 1
   70    65     5 1
   71    65    10 1
   72    65    64 1
   73    65    14 1
   74    66    23 1
   75    67    23 1
   76    68    23 1
   77    69    22 1
   78    70    22 1
   79    71    22 1
   80    72    21 1
   81    73    21 1
   82    74    21 1
   83    75    20 1
   84    76    20 1
   85    77    20 1
   86    78    15 1
   87    79    15 1
   88    80    15 1
   89    81     8 1
   90    82     8 1
   91    83     8 1
   92    84     7 1
   93    85     7 1
   94    86     6 1
   95    87     6 1
   96    88     3 1
   97    89     3 1
   98    90     1 1
   99    91     1 1
  100    92    63 1
  101    93    63 1
  102    94    63 1
  103    95    62 1
  104    96    62 1
  105    97    62 1
  106    98    60 1
  107    99    60 1
  108   100    59 1
  109   101    59 1
  110   102    58 1
  111   103    58 1
  112   104    57 1
  113   105    57 1
  114   106    57 1
  115   107    55 1
  116   108    55 1
  117   109    54 1
  118   110    54 1
  119   111    53 1
  120   112    53 1
  121   113    19 1
  122   114    18 1
  123   115    17 1
  124   116     9 1
  125   117     2 1
  126   118    52 1
  127   119    52 1
  128   120    52 1
  129   121    51 1
  130   122    50 1
  131   123    50 1
  132   124    49 1
  133   125    49 1
  134   126    48 1
  135   127    48 1
  136   128    43 1
  137   129    43 1
  138   130    43 1
  139   131    39 1
  140   132    32 1
  141   133    31 1
  142   134    61 1
  143   135    56 1
  144   136    24 1
  145   137    24 1
  146   139   138 1
  147   140   139 1
  148   141   140 1
  149   142   140 1
  150   143   142 1
  151   144   138 1
  152   144   143 1
  153   145   144 1
  154   146   145 1
  155   147   146 1
  156   148   147 1
  157   149   148 1
  158   150   149 1
  159   151   150 1
  160   152   151 1
  161   153   152 1
  162   154   138 1
  163   155   138 1
  164   156   143 1
  165   157   147 1
  166   158   151 1
  167   160   159 1
  168   161   160 1
  169   162   161 1
  170   163   161 1
  171   164   163 1
  172   165   159 1
  173   165   164 1
  174   166   165 1
  175   167   166 1
  176   168   167 1
  177   169   168 1
  178   170   169 1
  179   171   170 1
  180   172   171 1
  181   173   172 1
  182   174   153 1
  183   174   173 1
  184   175   159 1
  185   176   159 1
  186   177   164 1
  187   178   168 1
  188   179   172 1
  189   180   179 1
  190   181   179 1
  191   182   179 1
  192   183   178 1
  193   184   178 1
  194   185   178 1
  195   186   177 1
  196   187   177 1
  197   188   177 1
  198   189   176 1
  199   190   176 1
  200   191   176 1
  201   192   175 1
  202   193   175 1
  203   194   175 1
  204   195   160 1
  205   196   160 1
  206   197   158 1
  207   198   158 1
  208   199   158 1
  209   200   157 1
  210   201   157 1
  211   202   157 1
  212   203   156 1
  213   204   156 1
  214   205   156 1
  215   206   155 1
  216   207   155 1
  217   208   155 1
  218   209   154 1
  219   210   154 1
  220   211   154 1
  221   212   141 1
  222   213   146 1
  223   214   145 1
  224   215   142 1
  225   216   142 1
  226   217   174 1
  227   218   173 1
  228   219   171 1
  229   220   170 1
  230   221   169 1
  231   222   140 1
  232   223   167 1
  233   224   166 1
  234   225   165 1
  235   226   163 1
  236   227   161 1
  237   228   139 1
  238   229   139 1
  239   230   153 1
  240   231   152 1
  241   232   150 1
  242   233   149 1
  243   234   148 1
  244   235   162 1
  245   65    153 1
  246   65    174 1
@<TRIPOS>SUBSTRUCTURE
      1 CLA               1 ****               0 ****  **** 
      2 LUT             138 ****               0 ****  **** 
