@<TRIPOS>MOLECULE
Cpptraj generated mol2 file.
  235   246     2     0     0
SMALL
USER_CHARGES


@<TRIPOS>ATOM
      1 CAA        79.9682   59.7177   34.6776 a2         1 CLA     -0.055900
      2 CAB        78.9002   62.4818   43.8230 c8         1 CLA     -0.148500
      3 CAC        72.2839   58.3151   42.3505 a2         1 CLA     -0.012600
      4 CAD        75.9129   56.5809   35.1612 ck         1 CLA      0.398800
      5 NA         78.6537   59.5300   37.9992 ns         1 CLA     -0.225500
      6 CBA        81.2770   59.7170   33.8985 a2         1 CLA     -0.135000
      7 CBB        79.9311   62.4610   44.7232 c0         1 CLA     -0.395200
      8 CBC        72.2454   56.7941   42.6460 a3         1 CLA     -0.037700
      9 CBD        77.3038   57.3262   35.0645 a1         1 CLA     -0.053900
     10 NB         78.2106   60.8384   40.6472 nm         1 CLA     -0.295700
     11 OBD        75.4328   55.7429   34.4054 o2         1 CLA     -0.494600
     12 CGA        81.7817   58.2984   33.2676 c4         1 CLA      0.827000
     13 CGD        78.3249   56.3488   34.6321 c4         1 CLA      0.655300
     14 ND         75.9074   58.5047   38.2105 nm         1 CLA     -0.291600
     15 CED        79.2249   54.0696   34.8542 a3         1 CLA      0.005400
     16 CHA        77.5134   58.1121   36.3578 cs         1 CLA     -0.123800
     17 CHB        80.2544   60.8765   39.2602 aa         1 CLA     -0.291900
     18 CHC        76.7386   60.7801   42.5995 aa         1 CLA     -0.090400
     19 CHD        73.9836   58.0328   39.7267 aa         1 CLA     -0.052000
     20 CMA        82.0564   59.0381   37.6494 a3         1 CLA     -0.230700
     21 CMB        81.3868   62.7188   41.6624 a3         1 CLA     -0.180800
     22 CMC        74.3802   59.8773   44.3551 a3         1 CLA     -0.134000
     23 CMD        73.2564   55.8868   37.4259 a3         1 CLA     -0.141100
     24 C1         82.6962   56.0804   33.7036 a2         1 CLA      0.023000
     25 C1A        78.6478   58.8647   36.7736 ac         1 CLA     -0.015100
     26 C1B        79.5568   61.1521   40.4534 cr         1 CLA      0.054700
     27 C1C        75.6746   60.0043   42.1023 cn         1 CLA     -0.005600
     28 C1D        74.6961   57.8177   38.4672 ap         1 CLA     -0.047300
     29 O1A        81.8219   58.0344   32.0486 o2         1 CLA     -0.610800
     30 O1D        79.1660   56.6365   33.7705 o2         1 CLA     -0.558200
     31 C2         83.3016   55.3641   34.9008 c8         1 CLA     -0.325100
     32 C2A        79.9973   59.0086   36.0768 a1         1 CLA      0.098600
     33 C2B        80.0158   62.0287   41.5199 cb         1 CLA      0.088500
     34 C2C        74.4906   59.6595   42.8684 cb         1 CLA      0.053700
     35 C2D        74.3011   56.9020   37.3513 cb         1 CLA      0.058900
     36 O2A        82.1426   57.3923   34.2559 o1         1 CLA     -0.437200
     37 O2D        78.3456   55.1412   35.3494 o1         1 CLA     -0.357600
     38 C3         84.6363   55.0604   35.0679 c5         1 CLA      0.031200
     39 C3A        80.8517   59.8252   37.0509 a1         1 CLA      0.166800
     40 C3B        78.9672   61.9551   42.4874 cb         1 CLA      0.035000
     41 C3C        73.6397   58.9409   42.0420 cb         1 CLA     -0.089900
     42 C3D        75.4053   57.0976   36.4192 cb         1 CLA     -0.035900
     43 C4         85.2491   53.8633   34.3595 a3         1 CLA     -0.053300
     44 C4A        79.8255   60.0672   38.1739 ac         1 CLA      0.001800
     45 C4B        77.9256   61.1644   41.9298 cn         1 CLA     -0.020900
     46 C4C        74.3287   58.8061   40.7797 cr         1 CLA     -0.044400
     47 C4D        76.3548   57.9618   37.0791 c6         1 CLA     -0.046000
     48 C5         85.6563   55.9855   35.6298 a2         1 CLA     -0.070400
     49 C6         85.2200   57.0880   36.6151 a2         1 CLA      0.043900
     50 C7         84.7985   56.4660   38.0429 a2         1 CLA     -0.150000
     51 C8         85.0712   57.4319   39.1934 a1         1 CLA      0.064200
     52 C9         86.5755   57.6520   39.3754 a3         1 CLA     -0.259300
     53 C10        84.5408   56.9051   40.5737 a2         1 CLA     -0.071900
     54 C11        84.1778   58.0056   41.6129 a2         1 CLA      0.014500
     55 C12        83.4458   57.4344   42.9031 a2         1 CLA     -0.112100
     56 C13        82.7280   58.4442   43.8206 a1         1 CLA      0.089200
     57 C14        83.6627   59.6265   44.2191 a3         1 CLA     -0.239100
     58 C15        82.1264   57.8476   45.1906 a2         1 CLA     -0.102200
     59 C16        81.2705   56.6311   44.9263 a2         1 CLA      0.023900
     60 C17        80.0320   56.9555   44.0342 a2         1 CLA     -0.105700
     61 C18        78.7013   57.6334   44.6113 a1         1 CLA      0.206800
     62 C19        78.8862   59.1289   44.9395 a3         1 CLA     -0.280100
     63 C20        77.5607   57.3566   43.5493 a3         1 CLA     -0.280100
     64 NC         75.5275   59.4609   40.8261 nx         1 CLA     -0.309200
     65 MG         76.9647   59.7487   39.3258 mg         1 CLA      0.895000
     66 HMD3       72.3646   56.2451   36.9112 dc         1 CLA      0.064300
     67 HMD2       73.4524   54.9126   37.0082 dc         1 CLA      0.064300
     68 HMD1       72.8180   55.8696   38.3911 dc         1 CLA      0.064300
     69 HMC3       74.2878   60.9571   44.5528 dc         1 CLA      0.052100
     70 HMC2       73.5155   59.3756   44.7402 dc         1 CLA      0.052100
     71 HMC1       75.2796   59.4712   44.8550 dc         1 CLA      0.052100
     72 HMB3       81.3309   63.2441   42.6418 dc         1 CLA      0.063600
     73 HMB2       82.1956   61.9770   41.8509 dc         1 CLA      0.063600
     74 HMB1       81.6936   63.4369   40.9188 dc         1 CLA      0.063600
     75 HMA3       81.7072   58.0766   38.0270 dc         1 CLA      0.058300
     76 HMA2       82.6792   58.9694   36.7703 dc         1 CLA      0.058300
     77 HMA1       82.5874   59.5740   38.5079 dc         1 CLA      0.058300
     78 HED3       78.9397   53.7191   33.8390 dc         1 CLA      0.079300
     79 HED2       80.2506   54.3978   35.0269 dc         1 CLA      0.079300
     80 HED1       79.0456   53.3240   35.5563 dc         1 CLA      0.079300
     81 HBC3       72.6329   56.2613   41.7608 dc         1 CLA      0.016300
     82 HBC2       72.8794   56.6249   43.5002 dc         1 CLA      0.016300
     83 HBC1       71.2714   56.3784   42.9374 dc         1 CLA      0.016300
     84 HBB2       79.9177   62.9298   45.7333 da         1 CLA      0.183000
     85 HBB1       80.8426   61.9237   44.4121 da         1 CLA      0.183000
     86 HBA2       80.9831   60.3084   33.0095 dc         1 CLA      0.029400
     87 HBA1       82.1408   60.2524   34.3342 dc         1 CLA      0.029400
     88 HAC2       71.8081   58.9203   43.0925 dc         1 CLA      0.029300
     89 HAC1       71.5308   58.5500   41.5938 dc         1 CLA      0.029300
     90 HAA2       79.1255   59.2421   34.1748 dc         1 CLA      0.028700
     91 HAA1       79.6392   60.6825   34.9551 dc         1 CLA      0.028700
     92 H203       77.8123   57.6141   42.5282 dc         1 CLA      0.065600
     93 H202       77.3994   56.3055   43.5477 dc         1 CLA      0.065600
     94 H201       76.6232   57.7547   43.8941 dc         1 CLA      0.065600
     95 H193       77.9323   59.6493   45.0965 dc         1 CLA      0.065600
     96 H192       79.4423   59.2321   45.8687 dc         1 CLA      0.065600
     97 H191       79.5053   59.5655   44.1919 dc         1 CLA      0.065600
     98 H172       80.3758   57.4916   43.1426 dc         1 CLA      0.027600
     99 H171       79.8555   56.0099   43.6952 dc         1 CLA      0.027600
    100 H162       81.8894   55.8073   44.5092 dc         1 CLA      0.002900
    101 H161       80.7719   56.1745   45.8092 dc         1 CLA      0.002900
    102 H152       82.8811   57.5056   45.8653 dc         1 CLA      0.029100
    103 H151       81.5646   58.5772   45.7365 dc         1 CLA      0.029100
    104 H143       83.2866   60.2244   45.0637 dc         1 CLA      0.063600
    105 H142       84.5870   59.2184   44.6161 dc         1 CLA      0.063600
    106 H141       83.9290   60.1862   43.3187 dc         1 CLA      0.063600
    107 H122       82.7251   56.6722   42.5582 dc         1 CLA      0.032500
    108 H121       84.1059   56.8135   43.4766 dc         1 CLA      0.032500
    109 H112       84.9474   58.7298   41.8284 dc         1 CLA      0.006600
    110 H111       83.3914   58.7051   41.1380 dc         1 CLA      0.006600
    111 H102       83.6276   56.3300   40.4919 dc         1 CLA      0.024100
    112 H101       85.2640   56.2420   41.0191 dc         1 CLA      0.024100
    113 HHD        73.0530   57.5771   39.8441 da         1 CLA      0.174300
    114 HHC        76.6943   61.2030   43.5927 da         1 CLA      0.136800
    115 HHB        81.3341   61.1966   39.2097 da         1 CLA      0.138300
    116 HBD        77.2089   57.9784   34.2403 dc         1 CLA      0.107700
    117 HAB        77.9685   63.0046   44.0992 da         1 CLA      0.155200
    118 H93        87.1265   56.7010   39.4681 dc         1 CLA      0.069500
    119 H92        86.9243   58.2177   38.4791 dc         1 CLA      0.069500
    120 H91        86.8085   58.1555   40.3166 dc         1 CLA      0.069500
    121 H8         84.5365   58.3594   39.0093 dc         1 CLA      0.029300
    122 H72        83.7791   56.0966   37.9119 dc         1 CLA      0.044400
    123 H71        85.4478   55.6430   38.2240 dc         1 CLA      0.044400
    124 H62        86.0561   57.7674   36.6814 dc         1 CLA      0.015600
    125 H61        84.3155   57.6084   36.2505 dc         1 CLA      0.015600
    126 H52        86.4525   55.4438   36.2078 dc         1 CLA      0.033200
    127 H51        86.1945   56.3999   34.7824 dc         1 CLA      0.033200
    128 H43        85.8102   54.1727   33.4981 dc         1 CLA      0.037000
    129 H42        85.9343   53.4813   35.1154 dc         1 CLA      0.037000
    130 H41        84.4380   53.2404   34.0286 dc         1 CLA      0.037000
    131 H3A        81.1725   60.7782   36.6516 dc         1 CLA      0.041100
    132 H2A        80.4407   58.0484   36.0094 dc         1 CLA      0.083100
    133 H2         82.6316   54.8994   35.6433 da         1 CLA      0.180900
    134 H18        78.3044   57.1497   45.5058 dc         1 CLA     -0.003900
    135 H13        81.9448   58.8523   43.2328 dc         1 CLA      0.019700
    136 H12        81.8922   55.4205   33.3065 dc         1 CLA      0.120400
    137 H11        83.4843   56.2295   32.9551 dc         1 CLA      0.120400
    138 C1         69.5582   62.0260   50.5447 Z1         2 LUT      0.509236
    139 C2         68.2519   61.7194   51.2748 Z2         2 LUT     -0.434695
    140 C3         67.3148   62.8956   51.6230 Z3         2 LUT      0.437453
    141 O3         67.5007   63.5047   52.9443 S1         2 LUT     -0.547129
    142 C4         67.1940   63.9501   50.5361 Z4         2 LUT     -0.468603
    143 C5         68.0141   63.7170   49.2748 Z5         2 LUT      0.279246
    144 C6         69.1088   62.8935   49.2657 Z6         2 LUT     -0.305473
    145 C7         69.6728   62.5014   47.9783 Z7         2 LUT      0.069402
    146 C8         70.6304   63.1169   47.2948 Z8         2 LUT     -0.191631
    147 C9         71.1661   62.6271   46.0165 Z9         2 LUT      0.196698
    148 C10        72.1980   63.3380   45.5733 Y1         2 LUT     -0.208611
    149 C11        72.9239   63.3870   44.2925 Y2         2 LUT      0.030784
    150 C12        74.0474   63.9490   43.9862 Y3         2 LUT     -0.220316
    151 C13        74.8234   64.0550   42.8271 Y4         2 LUT      0.215937
    152 C14        76.0333   64.6731   42.7923 Y5         2 LUT     -0.185793
    153 C15        77.0474   64.9272   41.8219 Y6         2 LUT     -0.057835
    154 C16        70.4387   60.7253   50.3014 Y7         2 LUT     -0.405615
    155 C17        70.4271   62.9274   51.4699 Y7         2 LUT     -0.405615
    156 C18        67.4577   64.4378   48.1345 Y9         2 LUT     -0.369639
    157 C19        70.6387   61.3840   45.3218 W1         2 LUT     -0.333362
    158 C20        74.4046   63.3280   41.6061 W2         2 LUT     -0.323439
    159 C21        87.8226   66.6128   35.1857 Z1         2 LUT      0.406104
    160 C22        88.6616   66.0373   33.8940 Z2         2 LUT     -0.404965
    161 C23        88.8584   66.9197   32.7123 Z3         2 LUT      0.391255
    162 O23        89.4925   66.1953   31.6357 S1         2 LUT     -0.528210
    163 C24        87.5762   67.7882   32.5641 W6         2 LUT     -0.258361
    164 C25        86.5397   67.9177   33.4552 Z5         2 LUT      0.133546
    165 C26        86.4861   67.0361   34.7522 W8         2 LUT     -0.147008
    166 C27        85.6895   67.7401   35.8370 Z7         2 LUT      0.023843
    167 C28        84.7501   67.1369   36.5991 Z8         2 LUT     -0.216987
    168 C29        84.3810   67.3626   38.0140 Z9         2 LUT      0.206524
    169 C30        83.1859   66.8529   38.3995 Y1         2 LUT     -0.215556
    170 C31        82.5437   66.9030   39.6762 Y2         2 LUT      0.025142
    171 C32        81.3121   66.3461   39.9726 Y3         2 LUT     -0.212209
    172 C33        80.5281   66.2407   41.2641 Y4         2 LUT      0.240937
    173 C34        79.2442   65.8273   41.1836 Y5         2 LUT     -0.218862
    174 C35        78.2307   65.6085   42.1055 Y6         2 LUT     -0.023547
    175 C36        88.7445   67.7639   35.6702 Y7         2 LUT     -0.393485
    176 C37        87.6604   65.5664   36.2831 Y7         2 LUT     -0.393485
    177 C38        85.2997   68.7575   33.0126 Y9         2 LUT     -0.387526
    178 C39        85.2110   68.3100   38.8100 W1         2 LUT     -0.322618
    179 C40        81.1345   66.8536   42.5109 W2         2 LUT     -0.358472
    180 H403       80.7321   67.8195   42.8669 R7         2 LUT      0.097720
    181 H402       81.1333   66.0947   43.3013 R7         2 LUT      0.097720
    182 H401       82.2091   67.1138   42.4326 R7         2 LUT      0.097720
    183 H393       84.5236   68.8202   39.5083 R4         2 LUT      0.082505
    184 H392       85.8944   67.7675   39.3833 R4         2 LUT      0.082505
    185 H391       85.6489   68.9318   38.0630 R4         2 LUT      0.082505
    186 H383       84.9025   69.5080   33.6356 R1         2 LUT      0.104030
    187 H382       85.5657   69.1827   32.0615 R1         2 LUT      0.104030
    188 H381       84.5807   68.0023   32.8214 R1         2 LUT      0.104030
    189 H373       87.0360   64.7019   36.0198 T4         2 LUT      0.089537
    190 H372       88.6931   65.1961   36.5095 T4         2 LUT      0.089537
    191 H371       87.2601   65.9637   37.1815 T4         2 LUT      0.089537
    192 H363       88.7899   68.6275   35.0103 T4         2 LUT      0.089537
    193 H362       88.4916   67.9590   36.6955 T4         2 LUT      0.089537
    194 H361       89.7509   67.4908   35.7186 T4         2 LUT      0.089537
    195 H222       89.5925   65.6154   34.2568 U2         2 LUT      0.127376
    196 H221       88.1081   65.2579   33.4302 U2         2 LUT      0.127376
    197 H203       73.4734   63.6998   41.2753 R7         2 LUT      0.087068
    198 H202       75.0551   63.3597   40.7820 R7         2 LUT      0.087068
    199 H201       74.1958   62.2568   41.8316 R7         2 LUT      0.087068
    200 H193       70.9103   61.2498   44.2366 R4         2 LUT      0.089716
    201 H192       70.9249   60.4889   45.8976 R4         2 LUT      0.089716
    202 H191       69.6134   61.4077   45.3455 R4         2 LUT      0.089716
    203 H183       68.0145   65.4126   48.1845 R1         2 LUT      0.094572
    204 H182       67.6394   64.0322   47.1381 R1         2 LUT      0.094572
    205 H181       66.3977   64.5481   48.1706 R1         2 LUT      0.094572
    206 H173       69.8962   63.8108   51.8019 T4         2 LUT      0.093752
    207 H172       70.6806   62.2922   52.3519 T4         2 LUT      0.093752
    208 H171       71.2514   63.1950   50.8828 T4         2 LUT      0.093752
    209 H163       70.0434   60.1278   49.5049 T4         2 LUT      0.093752
    210 H162       71.4543   61.0524   49.9899 T4         2 LUT      0.093752
    211 H161       70.5600   60.1128   51.1662 T4         2 LUT      0.093752
    212 HO3        67.4731   62.9049   53.6463 Q1         2 LUT      0.300121
    213 H8         71.0091   64.1078   47.6774 U7         2 LUT      0.080784
    214 H7         69.4502   61.4655   47.7619 U6         2 LUT      0.042190
    215 H42        66.1678   64.1555   50.2774 U5         2 LUT      0.145166
    216 H41        67.5470   64.9215   51.0116 U5         2 LUT      0.145166
    217 H35        78.5432   65.8544   43.1920 T3         2 LUT      0.077919
    218 H34        78.9118   65.6966   40.1269 T2         2 LUT      0.073626
    219 H32        80.8261   65.9149   39.0674 T1         2 LUT      0.092510
    220 H31        83.1390   67.4072   40.4972 U9         2 LUT      0.070048
    221 H30        82.5745   66.2496   37.6872 U8         2 LUT      0.085442
    222 H3         66.3233   62.3938   51.7621 U3         2 LUT     -0.031596
    223 H28        84.2284   66.2557   36.1514 U7         2 LUT      0.084728
    224 H27        86.1991   68.6505   36.1296 U6         2 LUT      0.087291
    225 H26        85.9995   66.1228   34.5349 Q6         2 LUT      0.075325
    226 H24        87.6717   68.3245   31.6204 Q5         2 LUT      0.094482
    227 H23        89.6207   67.6024   33.1194 U3         2 LUT     -0.024869
    228 H22        67.7346   60.8493   50.9018 U2         2 LUT      0.127376
    229 H21        68.6333   61.4259   52.2234 U2         2 LUT      0.127376
    230 H15        76.8407   64.5854   40.7788 T3         2 LUT      0.093200
    231 H14        76.3095   65.2039   43.7242 T2         2 LUT      0.068865
    232 H12        74.5419   64.3949   44.8581 T1         2 LUT      0.095507
    233 H11        72.4037   62.8390   43.4984 U9         2 LUT      0.068930
    234 H10        72.4665   64.2096   46.0717 U8         2 LUT      0.083911
    235 H1         89.3049   66.6284   30.8103 Q1         2 LUT      0.297311
@<TRIPOS>BOND
    1     6     1 1
    2     7     2 1
    3     8     3 1
    4     9     4 1
    5    11     4 1
    6    12     6 1
    7    13     9 1
    8    16     9 1
    9    25     5 1
   10    25    16 1
   11    26    10 1
   12    26    17 1
   13    27    18 1
   14    28    14 1
   15    28    19 1
   16    29    12 1
   17    30    13 1
   18    31    24 1
   19    32     1 1
   20    32    25 1
   21    33    21 1
   22    33    26 1
   23    34    22 1
   24    34    27 1
   25    35    23 1
   26    35    28 1
   27    36    12 1
   28    36    24 1
   29    37    13 1
   30    37    15 1
   31    38    31 1
   32    39    20 1
   33    39    32 1
   34    40     2 1
   35    40    33 1
   36    41     3 1
   37    41    34 1
   38    42     4 1
   39    42    35 1
   40    43    38 1
   41    44     5 1
   42    44    17 1
   43    44    39 1
   44    45    10 1
   45    45    18 1
   46    45    40 1
   47    46    19 1
   48    46    41 1
   49    47    14 1
   50    47    16 1
   51    47    42 1
   52    48    38 1
   53    49    48 1
   54    50    49 1
   55    51    50 1
   56    52    51 1
   57    53    51 1
   58    54    53 1
   59    55    54 1
   60    56    55 1
   61    57    56 1
   62    58    56 1
   63    59    58 1
   64    60    59 1
   65    61    60 1
   66    62    61 1
   67    63    61 1
   68    64    27 1
   69    64    46 1
   70    65     5 1
   71    65    10 1
   72    65    64 1
   73    65    14 1
   74    66    23 1
   75    67    23 1
   76    68    23 1
   77    69    22 1
   78    70    22 1
   79    71    22 1
   80    72    21 1
   81    73    21 1
   82    74    21 1
   83    75    20 1
   84    76    20 1
   85    77    20 1
   86    78    15 1
   87    79    15 1
   88    80    15 1
   89    81     8 1
   90    82     8 1
   91    83     8 1
   92    84     7 1
   93    85     7 1
   94    86     6 1
   95    87     6 1
   96    88     3 1
   97    89     3 1
   98    90     1 1
   99    91     1 1
  100    92    63 1
  101    93    63 1
  102    94    63 1
  103    95    62 1
  104    96    62 1
  105    97    62 1
  106    98    60 1
  107    99    60 1
  108   100    59 1
  109   101    59 1
  110   102    58 1
  111   103    58 1
  112   104    57 1
  113   105    57 1
  114   106    57 1
  115   107    55 1
  116   108    55 1
  117   109    54 1
  118   110    54 1
  119   111    53 1
  120   112    53 1
  121   113    19 1
  122   114    18 1
  123   115    17 1
  124   116     9 1
  125   117     2 1
  126   118    52 1
  127   119    52 1
  128   120    52 1
  129   121    51 1
  130   122    50 1
  131   123    50 1
  132   124    49 1
  133   125    49 1
  134   126    48 1
  135   127    48 1
  136   128    43 1
  137   129    43 1
  138   130    43 1
  139   131    39 1
  140   132    32 1
  141   133    31 1
  142   134    61 1
  143   135    56 1
  144   136    24 1
  145   137    24 1
  146   139   138 1
  147   140   139 1
  148   141   140 1
  149   142   140 1
  150   143   142 1
  151   144   138 1
  152   144   143 1
  153   145   144 1
  154   146   145 1
  155   147   146 1
  156   148   147 1
  157   149   148 1
  158   150   149 1
  159   151   150 1
  160   152   151 1
  161   153   152 1
  162   154   138 1
  163   155   138 1
  164   156   143 1
  165   157   147 1
  166   158   151 1
  167   160   159 1
  168   161   160 1
  169   162   161 1
  170   163   161 1
  171   164   163 1
  172   165   159 1
  173   165   164 1
  174   166   165 1
  175   167   166 1
  176   168   167 1
  177   169   168 1
  178   170   169 1
  179   171   170 1
  180   172   171 1
  181   173   172 1
  182   174   153 1
  183   174   173 1
  184   175   159 1
  185   176   159 1
  186   177   164 1
  187   178   168 1
  188   179   172 1
  189   180   179 1
  190   181   179 1
  191   182   179 1
  192   183   178 1
  193   184   178 1
  194   185   178 1
  195   186   177 1
  196   187   177 1
  197   188   177 1
  198   189   176 1
  199   190   176 1
  200   191   176 1
  201   192   175 1
  202   193   175 1
  203   194   175 1
  204   195   160 1
  205   196   160 1
  206   197   158 1
  207   198   158 1
  208   199   158 1
  209   200   157 1
  210   201   157 1
  211   202   157 1
  212   203   156 1
  213   204   156 1
  214   205   156 1
  215   206   155 1
  216   207   155 1
  217   208   155 1
  218   209   154 1
  219   210   154 1
  220   211   154 1
  221   212   141 1
  222   213   146 1
  223   214   145 1
  224   215   142 1
  225   216   142 1
  226   217   174 1
  227   218   173 1
  228   219   171 1
  229   220   170 1
  230   221   169 1
  231   222   140 1
  232   223   167 1
  233   224   166 1
  234   225   165 1
  235   226   163 1
  236   227   161 1
  237   228   139 1
  238   229   139 1
  239   230   153 1
  240   231   152 1
  241   232   150 1
  242   233   149 1
  243   234   148 1
  244   235   162 1
  245   65    153 1
  246   65    174 1
@<TRIPOS>SUBSTRUCTURE
      1 CLA               1 ****               0 ****  **** 
      2 LUT             138 ****               0 ****  **** 
