@<TRIPOS>MOLECULE
Cpptraj generated mol2 file.
  235   246     2     0     0
SMALL
USER_CHARGES


@<TRIPOS>ATOM
      1 CAA        78.5707   57.7665   34.8128 a2         1 CLA     -0.055900
      2 CAB        77.4955   60.8746   43.9649 c8         1 CLA     -0.148500
      3 CAC        71.1308   56.1657   42.7191 a2         1 CLA     -0.012600
      4 CAD        74.4515   54.7655   35.4805 ck         1 CLA      0.398800
      5 NA         77.2442   57.8158   38.1282 ns         1 CLA     -0.225500
      6 CBA        79.9771   57.6967   34.2034 a2         1 CLA     -0.135000
      7 CBB        78.5315   60.8943   44.7772 c0         1 CLA     -0.395200
      8 CBC        71.5019   54.6820   42.6677 a3         1 CLA     -0.037700
      9 CBD        75.9186   55.4737   35.2397 a1         1 CLA     -0.053900
     10 NB         76.7338   59.1681   40.7188 nm         1 CLA     -0.295700
     11 OBD        73.8155   54.0365   34.7176 o2         1 CLA     -0.494600
     12 CGA        80.6537   56.3314   33.9422 c4         1 CLA      0.827000
     13 CGD        77.0474   54.5326   34.8240 c4         1 CLA      0.655300
     14 ND         74.5277   56.5898   38.4633 nm         1 CLA     -0.291600
     15 CED        78.0829   52.3425   35.3230 a3         1 CLA      0.005400
     16 CHA        76.1358   56.2651   36.6305 cs         1 CLA     -0.123800
     17 CHB        78.7561   59.3687   39.2836 aa         1 CLA     -0.291900
     18 CHC        75.2727   59.1869   42.5964 aa         1 CLA     -0.090400
     19 CHD        72.5822   56.2401   39.8866 aa         1 CLA     -0.052000
     20 CMA        80.6978   57.5801   37.9054 a3         1 CLA     -0.230700
     21 CMB        79.8513   61.0701   41.5317 a3         1 CLA     -0.180800
     22 CMC        73.0753   58.2102   44.5424 a3         1 CLA     -0.134000
     23 CMD        71.8095   54.2116   37.6528 a3         1 CLA     -0.141100
     24 C1         81.7156   54.4730   35.0355 a2         1 CLA      0.023000
     25 C1A        77.2561   57.0652   37.0232 ac         1 CLA     -0.015100
     26 C1B        78.0077   59.6441   40.4017 cr         1 CLA      0.054700
     27 C1C        74.2093   58.3101   42.2068 cn         1 CLA     -0.005600
     28 C1D        73.2676   55.9580   38.7036 ap         1 CLA     -0.047300
     29 O1A        80.7589   55.8145   32.8451 o2         1 CLA     -0.610800
     30 O1D        77.6594   54.5816   33.7998 o2         1 CLA     -0.558200
     31 C2         81.5789   53.8439   36.3772 c8         1 CLA     -0.325100
     32 C2A        78.5980   57.1628   36.2717 a1         1 CLA      0.098600
     33 C2B        78.5279   60.4118   41.5477 cb         1 CLA      0.088500
     34 C2C        73.1564   57.8517   43.0911 cb         1 CLA      0.053700
     35 C2D        72.9402   55.1139   37.6821 cb         1 CLA      0.058900
     36 O2A        81.0501   55.7250   35.0916 o1         1 CLA     -0.437200
     37 O2D        77.1319   53.4631   35.6450 o1         1 CLA     -0.357600
     38 C3         82.4987   53.1577   37.1171 c5         1 CLA      0.031200
     39 C3A        79.3946   58.2002   37.2133 a1         1 CLA      0.166800
     40 C3B        77.5452   60.2414   42.5434 cb         1 CLA      0.035000
     41 C3C        72.3277   57.0060   42.2497 cb         1 CLA     -0.089900
     42 C3D        74.0199   55.2121   36.8036 cb         1 CLA     -0.035900
     43 C4         82.5349   51.6238   37.1980 a3         1 CLA     -0.053300
     44 C4A        78.3961   58.5628   38.2214 ac         1 CLA      0.001800
     45 C4B        76.4379   59.5357   41.9988 cn         1 CLA     -0.020900
     46 C4C        73.0054   56.9447   40.9788 cr         1 CLA     -0.044400
     47 C4D        74.9387   56.0902   37.3305 c6         1 CLA     -0.046000
     48 C5         83.1721   53.9518   38.2070 a2         1 CLA     -0.070400
     49 C6         84.2690   55.0022   37.8307 a2         1 CLA      0.043900
     50 C7         84.8255   55.5448   39.1564 a2         1 CLA     -0.150000
     51 C8         85.6300   56.8745   39.1118 a1         1 CLA      0.064200
     52 C9         87.0647   56.7844   38.5199 a3         1 CLA     -0.259300
     53 C10        85.7896   57.3392   40.5781 a2         1 CLA     -0.071900
     54 C11        84.5338   57.8282   41.3466 a2         1 CLA      0.014500
     55 C12        84.8950   58.7731   42.5938 a2         1 CLA     -0.112100
     56 C13        85.7106   58.1434   43.7161 a1         1 CLA      0.089200
     57 C14        85.1565   56.7696   44.1270 a3         1 CLA     -0.239100
     58 C15        85.8704   59.0821   44.8986 a2         1 CLA     -0.102200
     59 C16        84.6080   59.7631   45.5191 a2         1 CLA      0.023900
     60 C17        85.0074   60.6519   46.7108 a2         1 CLA     -0.105700
     61 C18        83.8145   61.4693   47.4127 a1         1 CLA      0.206800
     62 C19        82.7207   60.4754   47.8316 a3         1 CLA     -0.280100
     63 C20        84.3329   62.2831   48.6100 a3         1 CLA     -0.280100
     64 NC         74.1245   57.7741   40.9768 nx         1 CLA     -0.309200
     65 MG         75.6259   57.9917   39.5512 mg         1 CLA      0.895000
     66 HMD3       72.1388   53.4361   36.8733 dc         1 CLA      0.064300
     67 HMD2       71.6341   53.8463   38.6528 dc         1 CLA      0.064300
     68 HMD1       70.8879   54.7173   37.3106 dc         1 CLA      0.064300
     69 HMC3       72.5073   57.3744   45.0249 dc         1 CLA      0.052100
     70 HMC2       74.0646   58.3164   45.0394 dc         1 CLA      0.052100
     71 HMC1       72.5730   59.1698   44.7012 dc         1 CLA      0.052100
     72 HMB3       80.6752   60.3567   41.3807 dc         1 CLA      0.063600
     73 HMB2       79.9264   61.7778   40.7146 dc         1 CLA      0.063600
     74 HMB1       79.8917   61.4765   42.4880 dc         1 CLA      0.063600
     75 HMA3       80.5615   56.6102   38.3929 dc         1 CLA      0.058300
     76 HMA2       81.4516   57.5241   37.1374 dc         1 CLA      0.058300
     77 HMA1       81.0837   58.2122   38.6775 dc         1 CLA      0.058300
     78 HED3       77.8405   51.5209   35.9967 dc         1 CLA      0.079300
     79 HED2       77.9350   52.0066   34.2727 dc         1 CLA      0.079300
     80 HED1       79.1347   52.4783   35.3788 dc         1 CLA      0.079300
     81 HBC3       71.2764   54.3065   41.6566 dc         1 CLA      0.016300
     82 HBC2       72.5393   54.4103   42.8726 dc         1 CLA      0.016300
     83 HBC1       70.8932   54.1452   43.3609 dc         1 CLA      0.016300
     84 HBB2       78.5100   61.4125   45.7156 da         1 CLA      0.183000
     85 HBB1       79.4795   60.3108   44.5325 da         1 CLA      0.183000
     86 HBA2       79.8791   58.1082   33.2346 dc         1 CLA      0.029400
     87 HBA1       80.7328   58.2799   34.7757 dc         1 CLA      0.029400
     88 HAC2       70.9504   56.3153   43.7870 dc         1 CLA      0.029300
     89 HAC1       70.2441   56.3599   42.1477 dc         1 CLA      0.029300
     90 HAA2       77.8045   57.2081   34.2626 dc         1 CLA      0.028700
     91 HAA1       78.1359   58.7418   34.8621 dc         1 CLA      0.028700
     92 H203       83.5234   62.9042   48.9419 dc         1 CLA      0.065600
     93 H202       84.6924   61.6323   49.3690 dc         1 CLA      0.065600
     94 H201       85.2225   62.8897   48.3351 dc         1 CLA      0.065600
     95 H193       83.0851   59.6504   48.4203 dc         1 CLA      0.065600
     96 H192       81.8933   61.0059   48.3486 dc         1 CLA      0.065600
     97 H191       82.2686   60.0958   46.9156 dc         1 CLA      0.065600
     98 H172       85.2965   59.9460   47.4549 dc         1 CLA      0.027600
     99 H171       85.8943   61.2757   46.4907 dc         1 CLA      0.027600
    100 H162       84.0671   60.3968   44.7769 dc         1 CLA      0.002900
    101 H161       83.9210   58.9972   45.9379 dc         1 CLA      0.002900
    102 H152       86.3865   58.4317   45.6465 dc         1 CLA      0.029100
    103 H151       86.6069   59.8386   44.6477 dc         1 CLA      0.029100
    104 H143       85.8564   56.3197   44.8278 dc         1 CLA      0.063600
    105 H142       84.1841   56.8830   44.5015 dc         1 CLA      0.063600
    106 H141       85.1089   56.0882   43.2454 dc         1 CLA      0.063600
    107 H122       85.4851   59.5914   42.1345 dc         1 CLA      0.032500
    108 H121       83.9504   59.1995   42.9234 dc         1 CLA      0.032500
    109 H112       84.0425   58.5642   40.7059 dc         1 CLA      0.006600
    110 H111       83.8278   57.0175   41.5965 dc         1 CLA      0.006600
    111 H102       86.3136   56.5471   41.1595 dc         1 CLA      0.024100
    112 H101       86.5014   58.1562   40.4188 dc         1 CLA      0.024100
    113 HHD        71.5639   55.7953   39.9875 da         1 CLA      0.174300
    114 HHC        75.1611   59.5976   43.5921 da         1 CLA      0.136800
    115 HHB        79.7369   59.7898   38.9792 da         1 CLA      0.138300
    116 HBD        75.8270   56.2095   34.4877 dc         1 CLA      0.107700
    117 HAB        76.5559   61.3090   44.2813 da         1 CLA      0.155200
    118 H93        86.9455   56.5856   37.4567 dc         1 CLA      0.069500
    119 H92        87.5648   57.7763   38.5014 dc         1 CLA      0.069500
    120 H91        87.7951   56.1269   39.0473 dc         1 CLA      0.069500
    121 H8         85.0026   57.5357   38.5797 dc         1 CLA      0.029300
    122 H72        83.9377   55.6935   39.7666 dc         1 CLA      0.044400
    123 H71        85.3205   54.7107   39.6454 dc         1 CLA      0.044400
    124 H62        85.0432   54.6028   37.1823 dc         1 CLA      0.015600
    125 H61        83.8783   55.8247   37.2335 dc         1 CLA      0.015600
    126 H52        82.4347   54.6534   38.4627 dc         1 CLA      0.033200
    127 H51        83.4408   53.2437   39.0325 dc         1 CLA      0.033200
    128 H43        81.9639   51.1302   36.3551 dc         1 CLA      0.037000
    129 H42        83.6009   51.2828   37.0913 dc         1 CLA      0.037000
    130 H41        82.1276   51.3603   38.1840 dc         1 CLA      0.037000
    131 H3A        79.6551   59.1228   36.7218 dc         1 CLA      0.041100
    132 H2A        79.0046   56.1241   36.2767 dc         1 CLA      0.083100
    133 H2         80.5985   53.8675   36.8102 da         1 CLA      0.180900
    134 H18        83.4511   62.1848   46.6366 dc         1 CLA     -0.003900
    135 H13        86.7342   57.9864   43.3466 dc         1 CLA      0.019700
    136 H12        81.3111   53.9164   34.2154 dc         1 CLA      0.120400
    137 H11        82.8450   54.5853   34.9245 dc         1 CLA      0.120400
    138 C1         68.5194   60.6852   50.2044 Z1         2 LUT      0.509236
    139 C2         67.2184   60.3718   50.9824 Z2         2 LUT     -0.434695
    140 C3         66.2225   61.5057   51.2766 Z3         2 LUT      0.437453
    141 O3         66.5564   62.1396   52.4822 S1         2 LUT     -0.547129
    142 C4         66.2496   62.5492   50.1730 Z4         2 LUT     -0.468603
    143 C5         67.0768   62.2879   48.8988 Z5         2 LUT      0.279246
    144 C6         68.1760   61.4865   48.9497 Z6         2 LUT     -0.305473
    145 C7         68.7195   60.8484   47.6749 Z7         2 LUT      0.069402
    146 C8         69.7686   61.3040   46.9668 Z8         2 LUT     -0.191631
    147 C9         70.0915   60.9438   45.5951 Z9         2 LUT      0.196698
    148 C10        71.0308   61.7837   44.9213 Y1         2 LUT     -0.208611
    149 C11        71.6456   61.7553   43.6323 Y2         2 LUT      0.030784
    150 C12        72.8408   62.2832   43.2496 Y3         2 LUT     -0.220316
    151 C13        73.6160   62.2858   41.9868 Y4         2 LUT      0.215937
    152 C14        74.7363   63.1096   41.9360 Y5         2 LUT     -0.185793
    153 C15        75.7965   63.0609   41.0493 Y6         2 LUT     -0.057835
    154 C16        69.3179   59.2885   50.0899 Y7         2 LUT     -0.405615
    155 C17        69.3988   61.5021   51.1844 Y7         2 LUT     -0.405615
    156 C18        66.4479   62.9365   47.7315 Y9         2 LUT     -0.369639
    157 C19        69.3980   59.8357   44.8652 W1         2 LUT     -0.333362
    158 C20        73.1038   61.3706   40.8353 W2         2 LUT     -0.323439
    159 C21        87.3103   64.7843   35.3786 Z1         2 LUT      0.406104
    160 C22        88.2046   64.4124   34.1465 Z2         2 LUT     -0.404965
    161 C23        88.2542   65.4779   33.0684 Z3         2 LUT      0.391255
    162 O23        89.0020   64.8544   31.9714 S1         2 LUT     -0.528210
    163 C24        86.8790   66.0028   32.8092 W6         2 LUT     -0.258361
    164 C25        85.8135   66.0023   33.5844 Z5         2 LUT      0.133546
    165 C26        85.8723   65.2513   34.8753 W8         2 LUT     -0.147008
    166 C27        85.2122   65.9790   35.9962 Z7         2 LUT      0.023843
    167 C28        84.1735   65.4314   36.6820 Z8         2 LUT     -0.216987
    168 C29        83.4003   65.8735   37.8036 Z9         2 LUT      0.206524
    169 C30        82.3503   65.0320   38.2119 Y1         2 LUT     -0.215556
    170 C31        81.4298   65.1602   39.3344 Y2         2 LUT      0.025142
    171 C32        80.2457   64.4510   39.4983 Y3         2 LUT     -0.212209
    172 C33        79.2855   64.4895   40.6346 Y4         2 LUT      0.240937
    173 C34        78.1565   63.7584   40.5873 Y5         2 LUT     -0.218862
    174 C35        76.9077   63.8147   41.3176 Y6         2 LUT     -0.023547
    175 C36        88.1969   65.8860   36.2278 Y7         2 LUT     -0.393485
    176 C37        87.2099   63.4321   36.0960 Y7         2 LUT     -0.393485
    177 C38        84.5368   66.6998   33.1071 Y9         2 LUT     -0.387526
    178 C39        84.0137   67.0158   38.5763 W1         2 LUT     -0.322618
    179 C40        79.3574   65.6002   41.6808 W2         2 LUT     -0.358472
    180 H403       78.3655   65.9738   41.9675 R7         2 LUT      0.097720
    181 H402       79.8811   65.1891   42.5146 R7         2 LUT      0.097720
    182 H401       79.9305   66.4634   41.4139 R7         2 LUT      0.097720
    183 H393       83.4284   67.3219   39.4693 R4         2 LUT      0.082505
    184 H392       84.9268   66.6051   39.0856 R4         2 LUT      0.082505
    185 H391       84.2872   67.8585   37.9359 R4         2 LUT      0.082505
    186 H383       83.8838   65.8625   32.7280 R1         2 LUT      0.104030
    187 H382       83.9673   67.0774   34.0153 R1         2 LUT      0.104030
    188 H381       84.6691   67.5853   32.5313 R1         2 LUT      0.104030
    189 H373       86.9396   62.7011   35.3776 T4         2 LUT      0.089537
    190 H372       88.1287   63.1222   36.6337 T4         2 LUT      0.089537
    191 H371       86.4059   63.3709   36.8311 T4         2 LUT      0.089537
    192 H363       89.1606   65.4914   36.3261 T4         2 LUT      0.089537
    193 H362       88.2590   66.7964   35.7465 T4         2 LUT      0.089537
    194 H361       87.8591   66.2181   37.1946 T4         2 LUT      0.089537
    195 H222       89.2496   64.3331   34.3409 U2         2 LUT      0.127376
    196 H221       87.8508   63.4953   33.6389 U2         2 LUT      0.127376
    197 H203       72.4486   60.5864   41.1876 R7         2 LUT      0.087068
    198 H202       72.5615   61.7848   40.0812 R7         2 LUT      0.087068
    199 H201       73.8462   60.8276   40.3142 R7         2 LUT      0.087068
    200 H193       68.7783   59.2723   45.5588 R4         2 LUT      0.089716
    201 H192       68.7530   60.1988   44.0078 R4         2 LUT      0.089716
    202 H191       70.1479   59.1385   44.4395 R4         2 LUT      0.089716
    203 H183       66.8295   62.5188   46.7648 R1         2 LUT      0.094572
    204 H182       65.4220   62.7092   47.5679 R1         2 LUT      0.094572
    205 H181       66.6247   64.0266   47.7016 R1         2 LUT      0.094572
    206 H173       70.3199   61.6924   50.7122 T4         2 LUT      0.093752
    207 H172       68.9916   62.4922   51.5074 T4         2 LUT      0.093752
    208 H171       69.6672   60.9999   52.1301 T4         2 LUT      0.093752
    209 H163       68.7834   58.6474   49.4337 T4         2 LUT      0.093752
    210 H162       70.2855   59.4112   49.5104 T4         2 LUT      0.093752
    211 H161       69.4225   58.6828   50.9986 T4         2 LUT      0.093752
    212 HO3        66.1108   61.6166   53.2260 Q1         2 LUT      0.300121
    213 H8         70.1550   62.2187   47.3743 U7         2 LUT      0.080784
    214 H7         68.0471   60.0278   47.3286 U6         2 LUT      0.042190
    215 H42        65.1891   62.7258   49.8916 U5         2 LUT      0.145166
    216 H41        66.6229   63.5693   50.5219 U5         2 LUT      0.145166
    217 H35        76.8871   64.3508   42.3054 T3         2 LUT      0.077919
    218 H34        78.0314   63.1174   39.7204 T2         2 LUT      0.073626
    219 H32        80.0061   63.7647   38.6165 T1         2 LUT      0.092510
    220 H31        81.7610   65.8623   40.1001 U9         2 LUT      0.070048
    221 H30        82.1294   64.1342   37.6189 U8         2 LUT      0.085442
    222 H3         65.2010   61.1020   51.1738 U3         2 LUT     -0.031596
    223 H28        83.7578   64.5240   36.2743 U7         2 LUT      0.084728
    224 H27        85.5369   66.9570   36.2531 U6         2 LUT      0.087291
    225 H26        85.3582   64.3242   34.5773 Q6         2 LUT      0.075325
    226 H24        86.8547   66.5440   31.8563 Q5         2 LUT      0.094482
    227 H23        88.9028   66.2005   33.6255 U3         2 LUT     -0.024869
    228 H22        66.6287   59.6155   50.4156 U2         2 LUT      0.127376
    229 H21        67.5714   59.9618   51.9057 U2         2 LUT      0.127376
    230 H15        75.7738   62.4839   40.1069 T3         2 LUT      0.093200
    231 H14        75.0162   63.6761   42.7668 T2         2 LUT      0.068865
    232 H12        73.3298   62.7855   44.0540 T1         2 LUT      0.095507
    233 H11        71.1594   61.1684   42.8535 U9         2 LUT      0.068930
    234 H10        71.4738   62.5945   45.5708 U8         2 LUT      0.083911
    235 H1         88.3918   64.6385   31.2063 Q1         2 LUT      0.297311
@<TRIPOS>BOND
    1     6     1 1
    2     7     2 1
    3     8     3 1
    4     9     4 1
    5    11     4 1
    6    12     6 1
    7    13     9 1
    8    16     9 1
    9    25     5 1
   10    25    16 1
   11    26    10 1
   12    26    17 1
   13    27    18 1
   14    28    14 1
   15    28    19 1
   16    29    12 1
   17    30    13 1
   18    31    24 1
   19    32     1 1
   20    32    25 1
   21    33    21 1
   22    33    26 1
   23    34    22 1
   24    34    27 1
   25    35    23 1
   26    35    28 1
   27    36    12 1
   28    36    24 1
   29    37    13 1
   30    37    15 1
   31    38    31 1
   32    39    20 1
   33    39    32 1
   34    40     2 1
   35    40    33 1
   36    41     3 1
   37    41    34 1
   38    42     4 1
   39    42    35 1
   40    43    38 1
   41    44     5 1
   42    44    17 1
   43    44    39 1
   44    45    10 1
   45    45    18 1
   46    45    40 1
   47    46    19 1
   48    46    41 1
   49    47    14 1
   50    47    16 1
   51    47    42 1
   52    48    38 1
   53    49    48 1
   54    50    49 1
   55    51    50 1
   56    52    51 1
   57    53    51 1
   58    54    53 1
   59    55    54 1
   60    56    55 1
   61    57    56 1
   62    58    56 1
   63    59    58 1
   64    60    59 1
   65    61    60 1
   66    62    61 1
   67    63    61 1
   68    64    27 1
   69    64    46 1
   70    65     5 1
   71    65    10 1
   72    65    64 1
   73    65    14 1
   74    66    23 1
   75    67    23 1
   76    68    23 1
   77    69    22 1
   78    70    22 1
   79    71    22 1
   80    72    21 1
   81    73    21 1
   82    74    21 1
   83    75    20 1
   84    76    20 1
   85    77    20 1
   86    78    15 1
   87    79    15 1
   88    80    15 1
   89    81     8 1
   90    82     8 1
   91    83     8 1
   92    84     7 1
   93    85     7 1
   94    86     6 1
   95    87     6 1
   96    88     3 1
   97    89     3 1
   98    90     1 1
   99    91     1 1
  100    92    63 1
  101    93    63 1
  102    94    63 1
  103    95    62 1
  104    96    62 1
  105    97    62 1
  106    98    60 1
  107    99    60 1
  108   100    59 1
  109   101    59 1
  110   102    58 1
  111   103    58 1
  112   104    57 1
  113   105    57 1
  114   106    57 1
  115   107    55 1
  116   108    55 1
  117   109    54 1
  118   110    54 1
  119   111    53 1
  120   112    53 1
  121   113    19 1
  122   114    18 1
  123   115    17 1
  124   116     9 1
  125   117     2 1
  126   118    52 1
  127   119    52 1
  128   120    52 1
  129   121    51 1
  130   122    50 1
  131   123    50 1
  132   124    49 1
  133   125    49 1
  134   126    48 1
  135   127    48 1
  136   128    43 1
  137   129    43 1
  138   130    43 1
  139   131    39 1
  140   132    32 1
  141   133    31 1
  142   134    61 1
  143   135    56 1
  144   136    24 1
  145   137    24 1
  146   139   138 1
  147   140   139 1
  148   141   140 1
  149   142   140 1
  150   143   142 1
  151   144   138 1
  152   144   143 1
  153   145   144 1
  154   146   145 1
  155   147   146 1
  156   148   147 1
  157   149   148 1
  158   150   149 1
  159   151   150 1
  160   152   151 1
  161   153   152 1
  162   154   138 1
  163   155   138 1
  164   156   143 1
  165   157   147 1
  166   158   151 1
  167   160   159 1
  168   161   160 1
  169   162   161 1
  170   163   161 1
  171   164   163 1
  172   165   159 1
  173   165   164 1
  174   166   165 1
  175   167   166 1
  176   168   167 1
  177   169   168 1
  178   170   169 1
  179   171   170 1
  180   172   171 1
  181   173   172 1
  182   174   153 1
  183   174   173 1
  184   175   159 1
  185   176   159 1
  186   177   164 1
  187   178   168 1
  188   179   172 1
  189   180   179 1
  190   181   179 1
  191   182   179 1
  192   183   178 1
  193   184   178 1
  194   185   178 1
  195   186   177 1
  196   187   177 1
  197   188   177 1
  198   189   176 1
  199   190   176 1
  200   191   176 1
  201   192   175 1
  202   193   175 1
  203   194   175 1
  204   195   160 1
  205   196   160 1
  206   197   158 1
  207   198   158 1
  208   199   158 1
  209   200   157 1
  210   201   157 1
  211   202   157 1
  212   203   156 1
  213   204   156 1
  214   205   156 1
  215   206   155 1
  216   207   155 1
  217   208   155 1
  218   209   154 1
  219   210   154 1
  220   211   154 1
  221   212   141 1
  222   213   146 1
  223   214   145 1
  224   215   142 1
  225   216   142 1
  226   217   174 1
  227   218   173 1
  228   219   171 1
  229   220   170 1
  230   221   169 1
  231   222   140 1
  232   223   167 1
  233   224   166 1
  234   225   165 1
  235   226   163 1
  236   227   161 1
  237   228   139 1
  238   229   139 1
  239   230   153 1
  240   231   152 1
  241   232   150 1
  242   233   149 1
  243   234   148 1
  244   235   162 1
  245   65    153 1
  246   65    174 1
@<TRIPOS>SUBSTRUCTURE
      1 CLA               1 ****               0 ****  **** 
      2 LUT             138 ****               0 ****  **** 
