@<TRIPOS>MOLECULE
Cpptraj generated mol2 file.
  235   246     2     0     0
SMALL
USER_CHARGES


@<TRIPOS>ATOM
      1 CAA        79.8055   57.9416   34.3822 a2         1 CLA     -0.055900
      2 CAB        80.4723   61.7891   43.1644 c8         1 CLA     -0.148500
      3 CAC        73.1026   58.1461   42.9120 a2         1 CLA     -0.012600
      4 CAD        75.6589   55.3984   35.6162 ck         1 CLA      0.398800
      5 NA         78.9186   58.2624   37.8288 ns         1 CLA     -0.225500
      6 CBA        81.0652   57.7476   33.4360 a2         1 CLA     -0.135000
      7 CBB        81.6851   61.8784   43.7428 c0         1 CLA     -0.395200
      8 CBC        73.1185   56.6139   43.1945 a3         1 CLA     -0.037700
      9 CBD        77.1532   55.8072   35.3494 a1         1 CLA     -0.053900
     10 NB         78.9636   59.7499   40.4043 nm         1 CLA     -0.295700
     11 OBD        75.0950   54.5667   34.8984 o2         1 CLA     -0.494600
     12 CGA        81.3616   56.3295   33.0177 c4         1 CLA      0.827000
     13 CGD        78.0940   54.6017   35.3764 c4         1 CLA      0.655300
     14 ND         76.1190   57.6869   38.3187 nm         1 CLA     -0.291600
     15 CED        78.6369   52.4973   36.4057 a3         1 CLA      0.005400
     16 CHA        77.4687   56.8503   36.4485 cs         1 CLA     -0.123800
     17 CHB        80.8077   59.4299   38.8114 aa         1 CLA     -0.291900
     18 CHC        77.6937   60.2439   42.4292 aa         1 CLA     -0.090400
     19 CHD        74.3184   57.6848   40.0124 aa         1 CLA     -0.052000
     20 CMA        82.1211   57.0762   37.2745 a3         1 CLA     -0.230700
     21 CMB        82.3832   61.2469   40.6324 a3         1 CLA     -0.180800
     22 CMC        75.3243   60.0538   44.4592 a3         1 CLA     -0.134000
     23 CMD        72.8828   55.6699   37.8654 a3         1 CLA     -0.141100
     24 C1         82.0018   54.1951   33.8017 a2         1 CLA      0.023000
     25 C1A        78.7356   57.4753   36.6890 ac         1 CLA     -0.015100
     26 C1B        80.2364   59.9515   39.9788 cr         1 CLA      0.054700
     27 C1C        76.4519   59.6288   42.0884 cn         1 CLA     -0.005600
     28 C1D        74.8270   57.2530   38.7638 ap         1 CLA     -0.047300
     29 O1A        81.2169   55.8596   31.8689 o2         1 CLA     -0.610800
     30 O1D        78.7585   54.2081   34.3605 o2         1 CLA     -0.558200
     31 C2         82.6508   53.6384   35.0631 c8         1 CLA     -0.325100
     32 C2A        80.0363   57.3864   35.8605 a1         1 CLA      0.098600
     33 C2B        80.9600   60.8427   40.8830 cb         1 CLA      0.088500
     34 C2C        75.3121   59.4716   43.0599 cb         1 CLA      0.053700
     35 C2D        74.2190   56.3331   37.8024 cb         1 CLA      0.058900
     36 O2A        81.7364   55.6027   34.0656 o1         1 CLA     -0.437200
     37 O2D        78.0675   53.8665   36.5362 o1         1 CLA     -0.357600
     38 C3         83.9142   53.0950   35.0961 c5         1 CLA      0.031200
     39 C3A        81.0740   58.1133   36.7238 a1         1 CLA      0.166800
     40 C3B        80.0910   61.0193   41.9443 cb         1 CLA      0.035000
     41 C3C        74.3971   58.6889   42.3652 cb         1 CLA     -0.089900
     42 C3D        75.2510   56.0984   36.8749 cb         1 CLA     -0.035900
     43 C4         84.0595   51.5549   34.8383 a3         1 CLA     -0.053300
     44 C4A        80.1965   58.5997   37.8777 ac         1 CLA      0.001800
     45 C4B        78.8028   60.3119   41.6354 cn         1 CLA     -0.020900
     46 C4C        74.8475   58.5209   41.0376 cr         1 CLA     -0.044400
     47 C4D        76.4005   56.9344   37.2742 c6         1 CLA     -0.046000
     48 C5         85.2192   53.8942   35.4531 a2         1 CLA     -0.070400
     49 C6         85.3285   54.4174   36.9489 a2         1 CLA      0.043900
     50 C7         86.7998   54.9675   37.1675 a2         1 CLA     -0.150000
     51 C8         87.1590   55.7166   38.4407 a1         1 CLA      0.064200
     52 C9         86.3317   56.9931   38.6691 a3         1 CLA     -0.259300
     53 C10        88.6903   56.0222   38.4949 a2         1 CLA     -0.071900
     54 C11        89.3176   56.7127   39.7714 a2         1 CLA      0.014500
     55 C12        89.2627   55.9139   41.0987 a2         1 CLA     -0.112100
     56 C13        89.9845   56.6498   42.2928 a1         1 CLA      0.089200
     57 C14        90.0135   55.7289   43.5299 a3         1 CLA     -0.239100
     58 C15        89.4622   58.1226   42.5679 a2         1 CLA     -0.102200
     59 C16        87.9250   58.3147   42.9692 a2         1 CLA      0.023900
     60 C17        87.6232   58.1708   44.4416 a2         1 CLA     -0.105700
     61 C18        86.1933   58.4244   44.9385 a1         1 CLA      0.206800
     62 C19        86.1700   57.9951   46.4368 a3         1 CLA     -0.280100
     63 C20        85.8110   59.9126   44.7863 a3         1 CLA     -0.280100
     64 NC         76.0619   59.0729   40.9104 nx         1 CLA     -0.309200
     65 MG         77.4623   58.7843   39.2427 mg         1 CLA      0.895000
     66 HMD3       72.1252   56.3282   37.3857 dc         1 CLA      0.064300
     67 HMD2       73.0051   54.7082   37.4072 dc         1 CLA      0.064300
     68 HMD1       72.7260   55.4570   38.9328 dc         1 CLA      0.064300
     69 HMC3       76.2358   60.1017   44.9957 dc         1 CLA      0.052100
     70 HMC2       74.8880   61.0630   44.4030 dc         1 CLA      0.052100
     71 HMC1       74.6186   59.4559   45.0534 dc         1 CLA      0.052100
     72 HMB3       82.9696   60.3476   40.6954 dc         1 CLA      0.063600
     73 HMB2       82.3969   61.6208   39.5846 dc         1 CLA      0.063600
     74 HMB1       82.7100   62.0207   41.2787 dc         1 CLA      0.063600
     75 HMA3       81.6631   56.2793   37.8228 dc         1 CLA      0.058300
     76 HMA2       82.7389   56.8194   36.4331 dc         1 CLA      0.058300
     77 HMA1       82.7035   57.6825   37.9712 dc         1 CLA      0.058300
     78 HED3       79.7534   52.5015   36.4076 dc         1 CLA      0.079300
     79 HED2       78.3168   51.9045   37.3251 dc         1 CLA      0.079300
     80 HED1       78.3899   52.0428   35.4376 dc         1 CLA      0.079300
     81 HBC3       72.1216   56.2852   42.9315 dc         1 CLA      0.016300
     82 HBC2       73.7563   56.0652   42.5310 dc         1 CLA      0.016300
     83 HBC1       73.3261   56.4295   44.2740 dc         1 CLA      0.016300
     84 HBB2       81.8203   62.6664   44.5758 da         1 CLA      0.183000
     85 HBB1       82.6476   61.4489   43.4215 da         1 CLA      0.183000
     86 HBA2       80.5886   58.1177   32.5002 dc         1 CLA      0.029400
     87 HBA1       81.8943   58.4206   33.5553 dc         1 CLA      0.029400
     88 HAC2       72.9105   58.7223   43.8492 dc         1 CLA      0.029300
     89 HAC1       72.2719   58.3434   42.2554 dc         1 CLA      0.029300
     90 HAA2       78.9926   57.3413   34.0092 dc         1 CLA      0.028700
     91 HAA1       79.3793   59.0092   34.4382 dc         1 CLA      0.028700
     92 H203       86.5808   60.5256   45.3408 dc         1 CLA      0.065600
     93 H202       85.9024   60.2131   43.7450 dc         1 CLA      0.065600
     94 H201       84.7887   60.1642   45.1988 dc         1 CLA      0.065600
     95 H193       85.9148   56.9193   46.4109 dc         1 CLA      0.065600
     96 H192       87.1778   58.1017   46.9564 dc         1 CLA      0.065600
     97 H191       85.3427   58.4962   46.9052 dc         1 CLA      0.065600
     98 H172       87.9859   57.2100   44.8630 dc         1 CLA      0.027600
     99 H171       88.3828   58.7800   44.9931 dc         1 CLA      0.027600
    100 H162       87.6674   59.3364   42.7159 dc         1 CLA      0.002900
    101 H161       87.3028   57.5495   42.4201 dc         1 CLA      0.002900
    102 H152       90.1706   58.6450   43.2498 dc         1 CLA      0.029100
    103 H151       89.6564   58.6599   41.6242 dc         1 CLA      0.029100
    104 H143       90.1642   54.7381   43.1410 dc         1 CLA      0.063600
    105 H142       90.7991   56.0512   44.2013 dc         1 CLA      0.063600
    106 H141       89.0806   55.8837   44.0205 dc         1 CLA      0.063600
    107 H122       88.2675   55.7713   41.3217 dc         1 CLA      0.032500
    108 H121       89.9298   55.0950   40.8967 dc         1 CLA      0.032500
    109 H112       90.3580   56.9418   39.6426 dc         1 CLA      0.006600
    110 H111       88.7894   57.6883   39.9945 dc         1 CLA      0.006600
    111 H102       89.2078   55.0983   38.2787 dc         1 CLA      0.024100
    112 H101       88.9278   56.6361   37.6394 dc         1 CLA      0.024100
    113 HHD        73.3393   57.3571   40.3265 da         1 CLA      0.174300
    114 HHC        77.8690   60.7358   43.3546 da         1 CLA      0.136800
    115 HHB        81.8392   59.7363   38.5170 da         1 CLA      0.138300
    116 HBD        77.2030   56.2761   34.3594 dc         1 CLA      0.107700
    117 HAB        79.8044   62.5080   43.6389 da         1 CLA      0.155200
    118 H93        86.5262   57.7436   37.8602 dc         1 CLA      0.069500
    119 H92        85.2608   56.7929   38.5524 dc         1 CLA      0.069500
    120 H91        86.5917   57.4222   39.6049 dc         1 CLA      0.069500
    121 H8         86.9255   55.0418   39.1897 dc         1 CLA      0.029300
    122 H72        87.3911   54.1405   36.8800 dc         1 CLA      0.044400
    123 H71        87.0421   55.7101   36.3150 dc         1 CLA      0.044400
    124 H62        84.5712   55.1691   37.0625 dc         1 CLA      0.015600
    125 H61        85.1431   53.5056   37.4823 dc         1 CLA      0.015600
    126 H52        86.0906   53.2781   35.3237 dc         1 CLA      0.033200
    127 H51        85.3117   54.7706   34.8411 dc         1 CLA      0.033200
    128 H43        82.9831   51.1061   34.8314 dc         1 CLA      0.037000
    129 H42        84.4408   51.4975   33.8152 dc         1 CLA      0.037000
    130 H41        84.6715   51.0349   35.5530 dc         1 CLA      0.037000
    131 H3A        81.6294   58.7424   36.1576 dc         1 CLA      0.041100
    132 H2A        80.3177   56.2543   35.7990 dc         1 CLA      0.083100
    133 H2         82.0168   53.6999   35.9526 da         1 CLA      0.180900
    134 H18        85.6808   57.7800   44.3078 dc         1 CLA     -0.003900
    135 H13        91.0347   56.7822   41.9114 dc         1 CLA      0.019700
    136 H12        81.2086   53.5827   33.4787 dc         1 CLA      0.120400
    137 H11        82.8227   54.0488   33.0933 dc         1 CLA      0.120400
    138 C1         69.9154   61.7360   49.9783 Z1         2 LUT      0.509236
    139 C2         68.5673   61.8851   50.6905 Z2         2 LUT     -0.434695
    140 C3         68.0032   63.2949   51.0705 Z3         2 LUT      0.437453
    141 O3         68.4171   63.7135   52.3308 S1         2 LUT     -0.547129
    142 C4         68.2253   64.2639   49.9491 Z4         2 LUT     -0.468603
    143 C5         69.0175   63.7754   48.7101 Z5         2 LUT      0.279246
    144 C6         69.8644   62.6998   48.7794 Z6         2 LUT     -0.305473
    145 C7         70.1631   62.0740   47.4435 Z7         2 LUT      0.069402
    146 C8         70.9836   62.6656   46.5872 Z8         2 LUT     -0.191631
    147 C9         71.5225   62.2676   45.3587 Z9         2 LUT      0.196698
    148 C10        72.4577   63.0471   44.7391 Y1         2 LUT     -0.208611
    149 C11        72.9243   62.9285   43.3289 Y2         2 LUT      0.030784
    150 C12        74.0930   63.6024   43.1970 Y3         2 LUT     -0.220316
    151 C13        75.0363   63.4122   42.1988 Y4         2 LUT      0.215937
    152 C14        76.2744   64.0609   42.4382 Y5         2 LUT     -0.185793
    153 C15        77.4291   63.7636   41.6991 Y6         2 LUT     -0.057835
    154 C16        70.2285   60.2600   49.7262 Y7         2 LUT     -0.405615
    155 C17        70.8990   62.1803   51.0945 Y7         2 LUT     -0.405615
    156 C18        68.5211   64.4266   47.4591 Y9         2 LUT     -0.369639
    157 C19        70.7423   61.2332   44.5699 W1         2 LUT     -0.333362
    158 C20        74.6487   62.5218   41.0003 W2         2 LUT     -0.323439
    159 C21        88.7869   64.7155   35.4043 Z1         2 LUT      0.406104
    160 C22        89.4033   64.2110   34.0702 Z2         2 LUT     -0.404965
    161 C23        89.3303   65.2448   32.9375 Z3         2 LUT      0.391255
    162 O23        89.6650   64.5094   31.7086 S1         2 LUT     -0.528210
    163 C24        88.0351   65.9282   32.8324 W6         2 LUT     -0.258361
    164 C25        87.0350   65.7802   33.6811 Z5         2 LUT      0.133546
    165 C26        87.2664   65.0694   35.0789 W8         2 LUT     -0.147008
    166 C27        86.6312   65.8124   36.2488 Z7         2 LUT      0.023843
    167 C28        85.4929   65.4324   36.8678 Z8         2 LUT     -0.216987
    168 C29        84.7176   66.0392   37.8896 Z9         2 LUT      0.206524
    169 C30        83.7608   65.2522   38.3742 Y1         2 LUT     -0.215556
    170 C31        82.8713   65.4321   39.4439 Y2         2 LUT      0.025142
    171 C32        81.7412   64.7133   39.7379 Y3         2 LUT     -0.212209
    172 C33        80.7418   65.1258   40.7665 Y4         2 LUT      0.240937
    173 C34        79.6226   64.2878   40.8238 Y5         2 LUT     -0.218862
    174 C35        78.5723   64.4970   41.7523 Y6         2 LUT     -0.023547
    175 C36        89.7105   65.9383   35.7500 Y7         2 LUT     -0.393485
    176 C37        89.1077   63.5594   36.4605 Y7         2 LUT     -0.393485
    177 C38        85.5644   66.1203   33.2372 Y9         2 LUT     -0.387526
    178 C39        85.1692   67.3459   38.5024 W1         2 LUT     -0.322618
    179 C40        81.1493   66.2012   41.7734 W2         2 LUT     -0.358472
    180 H403       80.6253   66.0639   42.6844 R7         2 LUT      0.097720
    181 H402       82.1897   66.3855   42.0844 R7         2 LUT      0.097720
    182 H401       80.8296   67.1879   41.4419 R7         2 LUT      0.097720
    183 H393       84.4875   67.7011   39.3036 R4         2 LUT      0.082505
    184 H392       86.1116   67.1402   39.0227 R4         2 LUT      0.082505
    185 H391       85.4904   68.1211   37.8689 R4         2 LUT      0.082505
    186 H383       84.9733   66.3152   34.1275 R1         2 LUT      0.104030
    187 H382       85.4168   66.9489   32.5600 R1         2 LUT      0.104030
    188 H381       85.0638   65.2763   32.6364 R1         2 LUT      0.104030
    189 H373       90.1397   63.4334   36.7692 T4         2 LUT      0.089537
    190 H372       88.6153   63.7310   37.3287 T4         2 LUT      0.089537
    191 H371       88.7332   62.5644   36.0948 T4         2 LUT      0.089537
    192 H363       89.4098   66.3535   36.6804 T4         2 LUT      0.089537
    193 H362       90.7412   65.6501   35.9811 T4         2 LUT      0.089537
    194 H361       89.6647   66.7883   35.0209 T4         2 LUT      0.089537
    195 H222       90.5032   64.0116   34.1412 U2         2 LUT      0.127376
    196 H221       88.8240   63.3406   33.7001 U2         2 LUT      0.127376
    197 H203       75.4437   61.9031   40.6191 R7         2 LUT      0.087068
    198 H202       73.8732   61.7679   41.1886 R7         2 LUT      0.087068
    199 H201       74.2922   63.2660   40.3218 R7         2 LUT      0.087068
    200 H193       70.2379   61.6330   43.7111 R4         2 LUT      0.089716
    201 H192       71.2997   60.4594   44.1581 R4         2 LUT      0.089716
    202 H191       69.9255   60.7570   45.1273 R4         2 LUT      0.089716
    203 H183       67.4911   64.6879   47.6599 R1         2 LUT      0.094572
    204 H182       68.9589   65.4874   47.4107 R1         2 LUT      0.094572
    205 H181       68.6976   64.0071   46.4736 R1         2 LUT      0.094572
    206 H173       70.8788   63.2633   51.2396 T4         2 LUT      0.093752
    207 H172       70.7563   61.7796   52.1067 T4         2 LUT      0.093752
    208 H171       71.8967   61.9701   50.6698 T4         2 LUT      0.093752
    209 H163       71.1355   60.0579   49.1148 T4         2 LUT      0.093752
    210 H162       70.2415   59.7474   50.6744 T4         2 LUT      0.093752
    211 H161       69.3586   59.8598   49.2658 T4         2 LUT      0.093752
    212 HO3        68.3592   63.0171   52.9857 Q1         2 LUT      0.300121
    213 H8         71.4473   63.6005   46.9168 U7         2 LUT      0.080784
    214 H7         69.8024   61.1129   47.2010 U6         2 LUT      0.042190
    215 H42        67.3357   64.8419   49.6688 U5         2 LUT      0.145166
    216 H41        68.8234   65.0652   50.3672 U5         2 LUT      0.145166
    217 H35        78.6631   65.3182   42.4431 T3         2 LUT      0.077919
    218 H34        79.4355   63.5888   40.0229 T2         2 LUT      0.073626
    219 H32        81.3862   63.8542   39.1412 T1         2 LUT      0.092510
    220 H31        83.1363   66.2746   40.0463 U9         2 LUT      0.070048
    221 H30        83.6156   64.2875   37.8952 U8         2 LUT      0.085442
    222 H3         66.8826   63.1763   51.1662 U3         2 LUT     -0.031596
    223 H28        85.0331   64.5501   36.3694 U7         2 LUT      0.084728
    224 H27        87.2152   66.7510   36.5011 U6         2 LUT      0.087291
    225 H26        86.7886   64.0997   34.7481 Q6         2 LUT      0.075325
    226 H24        87.9271   66.4004   31.8534 Q5         2 LUT      0.094482
    227 H23        90.1333   65.9558   33.0765 U3         2 LUT     -0.024869
    228 H22        67.9093   61.6403   49.9573 U2         2 LUT      0.127376
    229 H21        68.4764   61.1751   51.4988 U2         2 LUT      0.127376
    230 H15        77.4460   63.0378   40.8522 T3         2 LUT      0.093200
    231 H14        76.3261   64.7965   43.1839 T2         2 LUT      0.068865
    232 H12        74.4762   64.2649   43.9957 T1         2 LUT      0.095507
    233 H11        72.3720   62.1968   42.8128 U9         2 LUT      0.068930
    234 H10        72.9785   63.7845   45.4021 U8         2 LUT      0.083911
    235 H1         89.9103   65.0965   31.0094 Q1         2 LUT      0.297311
@<TRIPOS>BOND
    1     6     1 1
    2     7     2 1
    3     8     3 1
    4     9     4 1
    5    11     4 1
    6    12     6 1
    7    13     9 1
    8    16     9 1
    9    25     5 1
   10    25    16 1
   11    26    10 1
   12    26    17 1
   13    27    18 1
   14    28    14 1
   15    28    19 1
   16    29    12 1
   17    30    13 1
   18    31    24 1
   19    32     1 1
   20    32    25 1
   21    33    21 1
   22    33    26 1
   23    34    22 1
   24    34    27 1
   25    35    23 1
   26    35    28 1
   27    36    12 1
   28    36    24 1
   29    37    13 1
   30    37    15 1
   31    38    31 1
   32    39    20 1
   33    39    32 1
   34    40     2 1
   35    40    33 1
   36    41     3 1
   37    41    34 1
   38    42     4 1
   39    42    35 1
   40    43    38 1
   41    44     5 1
   42    44    17 1
   43    44    39 1
   44    45    10 1
   45    45    18 1
   46    45    40 1
   47    46    19 1
   48    46    41 1
   49    47    14 1
   50    47    16 1
   51    47    42 1
   52    48    38 1
   53    49    48 1
   54    50    49 1
   55    51    50 1
   56    52    51 1
   57    53    51 1
   58    54    53 1
   59    55    54 1
   60    56    55 1
   61    57    56 1
   62    58    56 1
   63    59    58 1
   64    60    59 1
   65    61    60 1
   66    62    61 1
   67    63    61 1
   68    64    27 1
   69    64    46 1
   70    65     5 1
   71    65    10 1
   72    65    64 1
   73    65    14 1
   74    66    23 1
   75    67    23 1
   76    68    23 1
   77    69    22 1
   78    70    22 1
   79    71    22 1
   80    72    21 1
   81    73    21 1
   82    74    21 1
   83    75    20 1
   84    76    20 1
   85    77    20 1
   86    78    15 1
   87    79    15 1
   88    80    15 1
   89    81     8 1
   90    82     8 1
   91    83     8 1
   92    84     7 1
   93    85     7 1
   94    86     6 1
   95    87     6 1
   96    88     3 1
   97    89     3 1
   98    90     1 1
   99    91     1 1
  100    92    63 1
  101    93    63 1
  102    94    63 1
  103    95    62 1
  104    96    62 1
  105    97    62 1
  106    98    60 1
  107    99    60 1
  108   100    59 1
  109   101    59 1
  110   102    58 1
  111   103    58 1
  112   104    57 1
  113   105    57 1
  114   106    57 1
  115   107    55 1
  116   108    55 1
  117   109    54 1
  118   110    54 1
  119   111    53 1
  120   112    53 1
  121   113    19 1
  122   114    18 1
  123   115    17 1
  124   116     9 1
  125   117     2 1
  126   118    52 1
  127   119    52 1
  128   120    52 1
  129   121    51 1
  130   122    50 1
  131   123    50 1
  132   124    49 1
  133   125    49 1
  134   126    48 1
  135   127    48 1
  136   128    43 1
  137   129    43 1
  138   130    43 1
  139   131    39 1
  140   132    32 1
  141   133    31 1
  142   134    61 1
  143   135    56 1
  144   136    24 1
  145   137    24 1
  146   139   138 1
  147   140   139 1
  148   141   140 1
  149   142   140 1
  150   143   142 1
  151   144   138 1
  152   144   143 1
  153   145   144 1
  154   146   145 1
  155   147   146 1
  156   148   147 1
  157   149   148 1
  158   150   149 1
  159   151   150 1
  160   152   151 1
  161   153   152 1
  162   154   138 1
  163   155   138 1
  164   156   143 1
  165   157   147 1
  166   158   151 1
  167   160   159 1
  168   161   160 1
  169   162   161 1
  170   163   161 1
  171   164   163 1
  172   165   159 1
  173   165   164 1
  174   166   165 1
  175   167   166 1
  176   168   167 1
  177   169   168 1
  178   170   169 1
  179   171   170 1
  180   172   171 1
  181   173   172 1
  182   174   153 1
  183   174   173 1
  184   175   159 1
  185   176   159 1
  186   177   164 1
  187   178   168 1
  188   179   172 1
  189   180   179 1
  190   181   179 1
  191   182   179 1
  192   183   178 1
  193   184   178 1
  194   185   178 1
  195   186   177 1
  196   187   177 1
  197   188   177 1
  198   189   176 1
  199   190   176 1
  200   191   176 1
  201   192   175 1
  202   193   175 1
  203   194   175 1
  204   195   160 1
  205   196   160 1
  206   197   158 1
  207   198   158 1
  208   199   158 1
  209   200   157 1
  210   201   157 1
  211   202   157 1
  212   203   156 1
  213   204   156 1
  214   205   156 1
  215   206   155 1
  216   207   155 1
  217   208   155 1
  218   209   154 1
  219   210   154 1
  220   211   154 1
  221   212   141 1
  222   213   146 1
  223   214   145 1
  224   215   142 1
  225   216   142 1
  226   217   174 1
  227   218   173 1
  228   219   171 1
  229   220   170 1
  230   221   169 1
  231   222   140 1
  232   223   167 1
  233   224   166 1
  234   225   165 1
  235   226   163 1
  236   227   161 1
  237   228   139 1
  238   229   139 1
  239   230   153 1
  240   231   152 1
  241   232   150 1
  242   233   149 1
  243   234   148 1
  244   235   162 1
  245   65    153 1
  246   65    174 1
@<TRIPOS>SUBSTRUCTURE
      1 CLA               1 ****               0 ****  **** 
      2 LUT             138 ****               0 ****  **** 
