@<TRIPOS>MOLECULE
Cpptraj generated mol2 file.
  235   246     2     0     0
SMALL
USER_CHARGES


@<TRIPOS>ATOM
      1 CAA        78.8890   58.9647   34.0771 a2         1 CLA     -0.055900
      2 CAB        78.8525   62.9716   42.7533 c8         1 CLA     -0.148500
      3 CAC        71.6579   59.0927   42.3879 a2         1 CLA     -0.012600
      4 CAD        74.3259   56.5637   35.0372 ck         1 CLA      0.398800
      5 NA         77.5986   59.3159   37.3884 ns         1 CLA     -0.225500
      6 CBA        80.1646   58.6177   33.2586 a2         1 CLA     -0.135000
      7 CBB        78.6012   62.5189   43.9899 c0         1 CLA     -0.395200
      8 CBC        71.6496   57.5634   42.3884 a3         1 CLA     -0.037700
      9 CBD        75.7825   57.0646   34.6302 a1         1 CLA     -0.053900
     10 NB         77.4703   60.9297   39.9541 nm         1 CLA     -0.295700
     11 OBD        73.7047   55.7609   34.2959 o2         1 CLA     -0.494600
     12 CGA        80.2680   57.1932   32.8207 c4         1 CLA      0.827000
     13 CGD        76.6622   55.8424   34.3990 c4         1 CLA      0.655300
     14 ND         74.7210   58.6878   37.8195 nm         1 CLA     -0.291600
     15 CED        77.2591   53.7790   35.1347 a3         1 CLA      0.005400
     16 CHA        76.2267   57.9460   35.8534 cs         1 CLA     -0.123800
     17 CHB        79.4152   60.5314   38.5245 aa         1 CLA     -0.291900
     18 CHC        76.1411   61.3536   41.9479 aa         1 CLA     -0.090400
     19 CHD        72.8900   58.6940   39.3843 aa         1 CLA     -0.052000
     20 CMA        80.8624   58.1239   37.0583 a3         1 CLA     -0.230700
     21 CMB        80.9553   62.4798   40.4467 a3         1 CLA     -0.180800
     22 CMC        74.0381   60.6995   43.9871 a3         1 CLA     -0.134000
     23 CMD        71.5666   56.8203   37.0511 a3         1 CLA     -0.141100
     24 C1         80.8758   55.0048   33.6865 a2         1 CLA      0.023000
     25 C1A        77.4679   58.5951   36.1981 ac         1 CLA     -0.015100
     26 C1B        78.7761   61.1643   39.5598 cr         1 CLA      0.054700
     27 C1C        74.9862   60.6478   41.5625 cn         1 CLA     -0.005600
     28 C1D        73.4337   58.2696   38.1447 ap         1 CLA     -0.047300
     29 O1A        79.9987   56.7860   31.7332 o2         1 CLA     -0.610800
     30 O1D        77.4791   55.7026   33.5279 o2         1 CLA     -0.558200
     31 C2         81.2326   54.3405   35.0924 c8         1 CLA     -0.325100
     32 C2A        78.8226   58.4303   35.5395 a1         1 CLA      0.098600
     33 C2B        79.4901   61.9680   40.5594 cb         1 CLA      0.088500
     34 C2C        73.9151   60.2727   42.5238 cb         1 CLA      0.053700
     35 C2D        72.9414   57.4094   37.1542 cb         1 CLA      0.058900
     36 O2A        80.6535   56.4386   33.8861 o1         1 CLA     -0.437200
     37 O2D        76.5441   54.9971   35.4487 o1         1 CLA     -0.357600
     38 C3         82.1567   53.3953   35.1543 c5         1 CLA      0.031200
     39 C3A        79.7824   59.1180   36.5225 a1         1 CLA      0.166800
     40 C3B        78.5941   62.2100   41.5182 cb         1 CLA      0.035000
     41 C3C        72.9851   59.5998   41.8605 cb         1 CLA     -0.089900
     42 C3D        73.9178   57.2719   36.2159 cb         1 CLA     -0.035900
     43 C4         81.6279   52.0057   35.1339 a3         1 CLA     -0.053300
     44 C4A        78.8804   59.6775   37.5928 ac         1 CLA      0.001800
     45 C4B        77.3013   61.4627   41.2112 cn         1 CLA     -0.020900
     46 C4C        73.4983   59.4121   40.4566 cr         1 CLA     -0.044400
     47 C4D        75.0282   58.0870   36.6558 c6         1 CLA     -0.046000
     48 C5         83.6297   53.6088   35.0492 a2         1 CLA     -0.070400
     49 C6         84.2505   55.0051   35.2673 a2         1 CLA      0.043900
     50 C7         84.4413   55.1562   36.8309 a2         1 CLA     -0.150000
     51 C8         84.8366   56.5152   37.3650 a1         1 CLA      0.064200
     52 C9         86.3085   56.8409   36.9843 a3         1 CLA     -0.259300
     53 C10        84.6990   56.5415   38.9340 a2         1 CLA     -0.071900
     54 C11        83.2492   56.8721   39.2911 a2         1 CLA      0.014500
     55 C12        83.1173   57.0063   40.8343 a2         1 CLA     -0.112100
     56 C13        81.7145   57.4910   41.4629 a1         1 CLA      0.089200
     57 C14        81.1591   58.6626   40.7198 a3         1 CLA     -0.239100
     58 C15        81.8605   57.8005   42.9487 a2         1 CLA     -0.102200
     59 C16        82.8608   58.9182   43.3531 a2         1 CLA      0.023900
     60 C17        82.8553   59.0790   44.9114 a2         1 CLA     -0.105700
     61 C18        83.5634   60.3603   45.4522 a1         1 CLA      0.206800
     62 C19        82.7860   61.7067   45.3018 a3         1 CLA     -0.280100
     63 C20        83.9413   60.1541   46.9458 a3         1 CLA     -0.280100
     64 NC         74.6926   60.0809   40.3520 nx         1 CLA     -0.309200
     65 MG         76.0056   59.8974   38.8038 mg         1 CLA      0.895000
     66 HMD3       71.2573   56.5151   38.0802 dc         1 CLA      0.064300
     67 HMD2       70.8805   57.5499   36.7834 dc         1 CLA      0.064300
     68 HMD1       71.6307   55.9985   36.4063 dc         1 CLA      0.064300
     69 HMC3       74.9847   60.5515   44.3193 dc         1 CLA      0.052100
     70 HMC2       73.7137   61.7002   44.2152 dc         1 CLA      0.052100
     71 HMC1       73.3627   60.0467   44.5741 dc         1 CLA      0.052100
     72 HMB3       81.4964   62.4568   39.4944 dc         1 CLA      0.063600
     73 HMB2       80.8577   63.4814   40.9063 dc         1 CLA      0.063600
     74 HMB1       81.4729   61.7388   41.0445 dc         1 CLA      0.063600
     75 HMA3       80.3900   57.3766   37.7875 dc         1 CLA      0.058300
     76 HMA2       81.3731   57.6464   36.1648 dc         1 CLA      0.058300
     77 HMA1       81.6003   58.7499   37.5790 dc         1 CLA      0.058300
     78 HED3       76.8753   53.0751   35.8554 dc         1 CLA      0.079300
     79 HED2       76.9833   53.3378   34.1867 dc         1 CLA      0.079300
     80 HED1       78.3324   53.7914   35.2977 dc         1 CLA      0.079300
     81 HBC3       70.5822   57.2276   42.6073 dc         1 CLA      0.016300
     82 HBC2       71.8916   57.2828   41.4198 dc         1 CLA      0.016300
     83 HBC1       72.2330   57.2021   43.2595 dc         1 CLA      0.016300
     84 HBB2       78.8177   63.0993   44.9102 da         1 CLA      0.183000
     85 HBB1       78.1902   61.5103   44.3046 da         1 CLA      0.183000
     86 HBA2       80.3275   59.2422   32.3929 dc         1 CLA      0.029400
     87 HBA1       80.9753   58.8104   33.8655 dc         1 CLA      0.029400
     88 HAC2       71.5405   59.4606   43.4134 dc         1 CLA      0.029300
     89 HAC1       70.7908   59.4708   41.8382 dc         1 CLA      0.029300
     90 HAA2       78.0954   58.5689   33.5238 dc         1 CLA      0.028700
     91 HAA1       78.9294   60.0300   34.0732 dc         1 CLA      0.028700
     92 H203       84.6771   59.4047   47.2050 dc         1 CLA      0.065600
     93 H202       84.3129   61.0673   47.3601 dc         1 CLA      0.065600
     94 H201       83.0665   59.8998   47.6010 dc         1 CLA      0.065600
     95 H193       81.8856   61.7192   45.9134 dc         1 CLA      0.065600
     96 H192       83.3427   62.5554   45.7540 dc         1 CLA      0.065600
     97 H191       82.6742   61.9287   44.1515 dc         1 CLA      0.065600
     98 H172       81.7963   59.1461   45.2469 dc         1 CLA      0.027600
     99 H171       83.4192   58.2365   45.3474 dc         1 CLA      0.027600
    100 H162       83.8645   58.6203   42.9716 dc         1 CLA      0.002900
    101 H161       82.6479   59.8770   42.8747 dc         1 CLA      0.002900
    102 H152       80.8363   57.9758   43.3957 dc         1 CLA      0.029100
    103 H151       82.2213   56.8864   43.4077 dc         1 CLA      0.029100
    104 H143       81.8095   59.5438   40.6134 dc         1 CLA      0.063600
    105 H142       80.8926   58.3070   39.7252 dc         1 CLA      0.063600
    106 H141       80.2919   59.0446   41.2198 dc         1 CLA      0.063600
    107 H122       83.4341   56.0052   41.0929 dc         1 CLA      0.032500
    108 H121       83.9361   57.7839   41.0482 dc         1 CLA      0.032500
    109 H112       82.9616   57.8457   38.9000 dc         1 CLA      0.006600
    110 H111       82.4591   56.2337   38.9800 dc         1 CLA      0.006600
    111 H102       84.9573   55.5143   39.3141 dc         1 CLA      0.024100
    112 H101       85.3891   57.2624   39.3783 dc         1 CLA      0.024100
    113 HHD        71.8590   58.3201   39.5309 da         1 CLA      0.174300
    114 HHC        76.1514   61.9192   42.9145 da         1 CLA      0.136800
    115 HHB        80.4855   60.7520   38.4930 da         1 CLA      0.138300
    116 HBD        75.6813   57.5994   33.7342 dc         1 CLA      0.107700
    117 HAB        79.2222   63.9867   42.6940 da         1 CLA      0.155200
    118 H93        86.4538   56.6803   35.9206 dc         1 CLA      0.069500
    119 H92        86.5823   57.8401   37.2086 dc         1 CLA      0.069500
    120 H91        86.8380   56.1886   37.6343 dc         1 CLA      0.069500
    121 H8         84.1964   57.2204   36.8423 dc         1 CLA      0.029300
    122 H72        83.4631   55.0318   37.1941 dc         1 CLA      0.044400
    123 H71        85.1229   54.4168   37.2071 dc         1 CLA      0.044400
    124 H62        85.2294   55.0056   34.7612 dc         1 CLA      0.015600
    125 H61        83.5897   55.7666   34.8238 dc         1 CLA      0.015600
    126 H52        84.1769   52.8803   35.6337 dc         1 CLA      0.033200
    127 H51        83.9045   53.2066   34.0512 dc         1 CLA      0.033200
    128 H43        82.1335   51.4791   34.3599 dc         1 CLA      0.037000
    129 H42        81.9685   51.5478   36.1286 dc         1 CLA      0.037000
    130 H41        80.5503   51.8819   34.9440 dc         1 CLA      0.037000
    131 H3A        80.3857   59.8911   36.0554 dc         1 CLA      0.041100
    132 H2A        78.9765   57.3483   35.5574 dc         1 CLA      0.083100
    133 H2         80.8846   54.8947   35.9414 da         1 CLA      0.180900
    134 H18        84.4657   60.5764   44.8946 dc         1 CLA     -0.003900
    135 H13        81.0063   56.7504   41.3831 dc         1 CLA      0.019700
    136 H12        79.9873   54.5108   33.2916 dc         1 CLA      0.120400
    137 H11        81.6466   54.8526   32.9197 dc         1 CLA      0.120400
    138 C1         68.1686   61.4420   49.9581 Z1         2 LUT      0.509236
    139 C2         66.8853   61.4733   50.8468 Z2         2 LUT     -0.434695
    140 C3         66.2441   62.8062   51.1651 Z3         2 LUT      0.437453
    141 O3         66.0883   62.9973   52.5293 S1         2 LUT     -0.547129
    142 C4         66.8215   63.8525   50.3290 Z4         2 LUT     -0.468603
    143 C5         67.1983   63.4888   48.9438 Z5         2 LUT      0.279246
    144 C6         67.9580   62.4258   48.7627 Z6         2 LUT     -0.305473
    145 C7         68.2458   61.9295   47.4211 Z7         2 LUT      0.069402
    146 C8         69.0534   62.6312   46.5392 Z8         2 LUT     -0.191631
    147 C9         69.6075   62.2832   45.1596 Z9         2 LUT      0.196698
    148 C10        70.6941   62.9908   44.6313 Y1         2 LUT     -0.208611
    149 C11        71.4528   62.9814   43.3811 Y2         2 LUT      0.030784
    150 C12        72.5257   63.7410   43.2145 Y3         2 LUT     -0.220316
    151 C13        73.3640   63.9100   42.0822 Y4         2 LUT      0.215937
    152 C14        74.5490   64.6028   42.1152 Y5         2 LUT     -0.185793
    153 C15        75.6388   64.7220   41.1326 Y6         2 LUT     -0.057835
    154 C16        68.5164   59.9171   49.6999 Y7         2 LUT     -0.405615
    155 C17        69.2710   61.9162   50.9515 Y7         2 LUT     -0.405615
    156 C18        66.5320   64.3310   47.9137 Y9         2 LUT     -0.369639
    157 C19        68.7893   61.2266   44.3663 W1         2 LUT     -0.333362
    158 C20        72.7273   63.3987   40.7637 W2         2 LUT     -0.323439
    159 C21        87.1661   65.8966   35.0207 Z1         2 LUT      0.406104
    160 C22        87.9693   65.3391   33.8201 Z2         2 LUT     -0.404965
    161 C23        88.2426   66.2902   32.7059 Z3         2 LUT      0.391255
    162 O23        89.1278   65.5778   31.7621 S1         2 LUT     -0.528210
    163 C24        86.9612   67.0738   32.3857 W6         2 LUT     -0.258361
    164 C25        85.8772   67.2105   33.1397 Z5         2 LUT      0.133546
    165 C26        85.7926   66.4598   34.5604 W8         2 LUT     -0.147008
    166 C27        84.9606   67.0325   35.6184 Z7         2 LUT      0.023843
    167 C28        83.8041   66.3881   36.1855 Z8         2 LUT     -0.216987
    168 C29        83.1103   66.9164   37.4452 Z9         2 LUT      0.206524
    169 C30        82.0794   66.1916   37.9266 Y1         2 LUT     -0.215556
    170 C31        81.2817   66.4725   39.0871 Y2         2 LUT      0.025142
    171 C32        79.9828   65.8940   39.2822 Y3         2 LUT     -0.212209
    172 C33        79.1915   66.0122   40.4391 Y4         2 LUT      0.240937
    173 C34        77.9293   65.4572   40.3958 Y5         2 LUT     -0.218862
    174 C35        76.7954   65.4439   41.3368 Y6         2 LUT     -0.023547
    175 C36        88.1449   66.9057   35.8695 Y7         2 LUT     -0.393485
    176 C37        86.9932   64.8162   36.0702 Y7         2 LUT     -0.393485
    177 C38        84.6656   67.9056   32.7017 Y9         2 LUT     -0.387526
    178 C39        83.6305   68.1515   38.2178 W1         2 LUT     -0.322618
    179 C40        79.7122   66.6087   41.7213 W2         2 LUT     -0.358472
    180 H403       80.7352   66.4222   41.8372 R7         2 LUT      0.097720
    181 H402       79.6904   67.6548   41.6165 R7         2 LUT      0.097720
    182 H401       79.1646   66.3857   42.5949 R7         2 LUT      0.097720
    183 H393       84.5968   68.5234   37.9909 R4         2 LUT      0.082505
    184 H392       82.9577   69.0334   38.2551 R4         2 LUT      0.082505
    185 H391       83.7110   67.9727   39.3255 R4         2 LUT      0.082505
    186 H383       84.4334   68.5905   33.5140 R1         2 LUT      0.104030
    187 H382       84.8697   68.5187   31.7902 R1         2 LUT      0.104030
    188 H381       83.7737   67.3160   32.5137 R1         2 LUT      0.104030
    189 H373       86.5864   65.2856   36.9558 T4         2 LUT      0.089537
    190 H372       86.4383   63.9441   35.8245 T4         2 LUT      0.089537
    191 H371       87.9378   64.4054   36.3525 T4         2 LUT      0.089537
    192 H363       87.5748   67.1602   36.8279 T4         2 LUT      0.089537
    193 H362       89.1121   66.4572   36.1358 T4         2 LUT      0.089537
    194 H361       88.2710   67.7375   35.2156 T4         2 LUT      0.089537
    195 H222       88.8224   64.7916   34.1274 U2         2 LUT      0.127376
    196 H221       87.3027   64.5905   33.3979 U2         2 LUT      0.127376
    197 H203       73.3102   63.6787   39.9090 R7         2 LUT      0.087068
    198 H202       72.5930   62.3171   40.8589 R7         2 LUT      0.087068
    199 H201       71.7483   63.8193   40.5728 R7         2 LUT      0.087068
    200 H193       69.4590   60.3528   44.0504 R4         2 LUT      0.089716
    201 H192       67.9205   60.8587   44.8132 R4         2 LUT      0.089716
    202 H191       68.4531   61.7688   43.3868 R4         2 LUT      0.089716
    203 H183       65.5378   63.9722   47.6726 R1         2 LUT      0.094572
    204 H182       66.4138   65.3684   48.3492 R1         2 LUT      0.094572
    205 H181       67.1416   64.3637   46.9887 R1         2 LUT      0.094572
    206 H173       69.5638   62.9990   50.9078 T4         2 LUT      0.093752
    207 H172       69.0500   61.6357   51.9884 T4         2 LUT      0.093752
    208 H171       70.2795   61.4544   50.7545 T4         2 LUT      0.093752
    209 H163       69.4858   59.6615   49.2514 T4         2 LUT      0.093752
    210 H162       68.4011   59.2721   50.5867 T4         2 LUT      0.093752
    211 H161       67.8321   59.5101   48.9801 T4         2 LUT      0.093752
    212 HO3        66.8727   63.2377   52.9700 Q1         2 LUT      0.300121
    213 H8         69.3842   63.5668   46.9581 U7         2 LUT      0.080784
    214 H7         68.0313   60.9204   47.1930 U6         2 LUT      0.042190
    215 H42        66.2519   64.7852   50.2907 U5         2 LUT      0.145166
    216 H41        67.7071   64.2345   50.7806 U5         2 LUT      0.145166
    217 H35        77.0450   65.8907   42.2653 T3         2 LUT      0.077919
    218 H34        77.7804   64.8762   39.4839 T2         2 LUT      0.073626
    219 H32        79.6121   65.2791   38.4925 T1         2 LUT      0.092510
    220 H31        81.5726   67.1241   39.8200 U9         2 LUT      0.070048
    221 H30        81.7129   65.3592   37.3156 U8         2 LUT      0.085442
    222 H3         65.2174   62.7128   50.6786 U3         2 LUT     -0.031596
    223 H28        83.4099   65.5604   35.6325 U7         2 LUT      0.084728
    224 H27        85.4310   67.9025   36.0667 U6         2 LUT      0.087291
    225 H26        85.2198   65.4979   34.3411 Q6         2 LUT      0.075325
    226 H24        86.9579   67.4901   31.3557 Q5         2 LUT      0.094482
    227 H23        88.8727   67.1452   33.0675 U3         2 LUT     -0.024869
    228 H22        66.1574   60.9927   50.1857 U2         2 LUT      0.127376
    229 H21        66.9637   60.7922   51.7747 U2         2 LUT      0.127376
    230 H15        75.4953   64.1302   40.1984 T3         2 LUT      0.093200
    231 H14        74.8321   65.0105   43.0984 T2         2 LUT      0.068865
    232 H12        72.9415   64.3738   44.0468 T1         2 LUT      0.095507
    233 H11        71.1078   62.3224   42.6382 U9         2 LUT      0.068930
    234 H10        71.1419   63.6708   45.3919 U8         2 LUT      0.083911
    235 H1         88.6867   65.4389   30.8913 Q1         2 LUT      0.297311
@<TRIPOS>BOND
    1     6     1 1
    2     7     2 1
    3     8     3 1
    4     9     4 1
    5    11     4 1
    6    12     6 1
    7    13     9 1
    8    16     9 1
    9    25     5 1
   10    25    16 1
   11    26    10 1
   12    26    17 1
   13    27    18 1
   14    28    14 1
   15    28    19 1
   16    29    12 1
   17    30    13 1
   18    31    24 1
   19    32     1 1
   20    32    25 1
   21    33    21 1
   22    33    26 1
   23    34    22 1
   24    34    27 1
   25    35    23 1
   26    35    28 1
   27    36    12 1
   28    36    24 1
   29    37    13 1
   30    37    15 1
   31    38    31 1
   32    39    20 1
   33    39    32 1
   34    40     2 1
   35    40    33 1
   36    41     3 1
   37    41    34 1
   38    42     4 1
   39    42    35 1
   40    43    38 1
   41    44     5 1
   42    44    17 1
   43    44    39 1
   44    45    10 1
   45    45    18 1
   46    45    40 1
   47    46    19 1
   48    46    41 1
   49    47    14 1
   50    47    16 1
   51    47    42 1
   52    48    38 1
   53    49    48 1
   54    50    49 1
   55    51    50 1
   56    52    51 1
   57    53    51 1
   58    54    53 1
   59    55    54 1
   60    56    55 1
   61    57    56 1
   62    58    56 1
   63    59    58 1
   64    60    59 1
   65    61    60 1
   66    62    61 1
   67    63    61 1
   68    64    27 1
   69    64    46 1
   70    65     5 1
   71    65    10 1
   72    65    64 1
   73    65    14 1
   74    66    23 1
   75    67    23 1
   76    68    23 1
   77    69    22 1
   78    70    22 1
   79    71    22 1
   80    72    21 1
   81    73    21 1
   82    74    21 1
   83    75    20 1
   84    76    20 1
   85    77    20 1
   86    78    15 1
   87    79    15 1
   88    80    15 1
   89    81     8 1
   90    82     8 1
   91    83     8 1
   92    84     7 1
   93    85     7 1
   94    86     6 1
   95    87     6 1
   96    88     3 1
   97    89     3 1
   98    90     1 1
   99    91     1 1
  100    92    63 1
  101    93    63 1
  102    94    63 1
  103    95    62 1
  104    96    62 1
  105    97    62 1
  106    98    60 1
  107    99    60 1
  108   100    59 1
  109   101    59 1
  110   102    58 1
  111   103    58 1
  112   104    57 1
  113   105    57 1
  114   106    57 1
  115   107    55 1
  116   108    55 1
  117   109    54 1
  118   110    54 1
  119   111    53 1
  120   112    53 1
  121   113    19 1
  122   114    18 1
  123   115    17 1
  124   116     9 1
  125   117     2 1
  126   118    52 1
  127   119    52 1
  128   120    52 1
  129   121    51 1
  130   122    50 1
  131   123    50 1
  132   124    49 1
  133   125    49 1
  134   126    48 1
  135   127    48 1
  136   128    43 1
  137   129    43 1
  138   130    43 1
  139   131    39 1
  140   132    32 1
  141   133    31 1
  142   134    61 1
  143   135    56 1
  144   136    24 1
  145   137    24 1
  146   139   138 1
  147   140   139 1
  148   141   140 1
  149   142   140 1
  150   143   142 1
  151   144   138 1
  152   144   143 1
  153   145   144 1
  154   146   145 1
  155   147   146 1
  156   148   147 1
  157   149   148 1
  158   150   149 1
  159   151   150 1
  160   152   151 1
  161   153   152 1
  162   154   138 1
  163   155   138 1
  164   156   143 1
  165   157   147 1
  166   158   151 1
  167   160   159 1
  168   161   160 1
  169   162   161 1
  170   163   161 1
  171   164   163 1
  172   165   159 1
  173   165   164 1
  174   166   165 1
  175   167   166 1
  176   168   167 1
  177   169   168 1
  178   170   169 1
  179   171   170 1
  180   172   171 1
  181   173   172 1
  182   174   153 1
  183   174   173 1
  184   175   159 1
  185   176   159 1
  186   177   164 1
  187   178   168 1
  188   179   172 1
  189   180   179 1
  190   181   179 1
  191   182   179 1
  192   183   178 1
  193   184   178 1
  194   185   178 1
  195   186   177 1
  196   187   177 1
  197   188   177 1
  198   189   176 1
  199   190   176 1
  200   191   176 1
  201   192   175 1
  202   193   175 1
  203   194   175 1
  204   195   160 1
  205   196   160 1
  206   197   158 1
  207   198   158 1
  208   199   158 1
  209   200   157 1
  210   201   157 1
  211   202   157 1
  212   203   156 1
  213   204   156 1
  214   205   156 1
  215   206   155 1
  216   207   155 1
  217   208   155 1
  218   209   154 1
  219   210   154 1
  220   211   154 1
  221   212   141 1
  222   213   146 1
  223   214   145 1
  224   215   142 1
  225   216   142 1
  226   217   174 1
  227   218   173 1
  228   219   171 1
  229   220   170 1
  230   221   169 1
  231   222   140 1
  232   223   167 1
  233   224   166 1
  234   225   165 1
  235   226   163 1
  236   227   161 1
  237   228   139 1
  238   229   139 1
  239   230   153 1
  240   231   152 1
  241   232   150 1
  242   233   149 1
  243   234   148 1
  244   235   162 1
  245   65    153 1
  246   65    174 1
@<TRIPOS>SUBSTRUCTURE
      1 CLA               1 ****               0 ****  **** 
      2 LUT             138 ****               0 ****  **** 
