@<TRIPOS>MOLECULE
Cpptraj generated mol2 file.
  235   246     2     0     0
SMALL
USER_CHARGES


@<TRIPOS>ATOM
      1 CAA        79.0621   59.5161   33.9795 a2         1 CLA     -0.055900
      2 CAB        78.7908   62.9347   43.2052 c8         1 CLA     -0.148500
      3 CAC        72.0602   58.3997   42.5352 a2         1 CLA     -0.012600
      4 CAD        74.9483   56.6060   35.0703 ck         1 CLA      0.398800
      5 NA         77.9205   59.7224   37.4059 ns         1 CLA     -0.225500
      6 CBA        80.4319   59.2848   33.2321 a2         1 CLA     -0.135000
      7 CBB        79.9726   63.2909   43.7198 c0         1 CLA     -0.395200
      8 CBC        72.3508   56.9111   42.8259 a3         1 CLA     -0.037700
      9 CBD        76.4118   57.1472   34.8053 a1         1 CLA     -0.053900
     10 NB         77.7518   61.0570   40.0651 nm         1 CLA     -0.295700
     11 OBD        74.3825   55.8314   34.2826 o2         1 CLA     -0.494600
     12 CGA        80.9022   57.8202   32.8426 c4         1 CLA      0.827000
     13 CGD        77.4051   56.0732   34.6763 c4         1 CLA      0.655300
     14 ND         75.2559   58.5598   38.1127 nm         1 CLA     -0.291600
     15 CED        77.9172   53.9774   35.8338 a3         1 CLA      0.005400
     16 CHA        76.7395   58.0683   36.0169 cs         1 CLA     -0.123800
     17 CHB        79.5842   61.1884   38.4538 aa         1 CLA     -0.291900
     18 CHC        76.4321   61.1746   42.2235 aa         1 CLA     -0.090400
     19 CHD        73.5043   58.3166   39.7013 aa         1 CLA     -0.052000
     20 CMA        81.4839   59.4298   36.8860 a3         1 CLA     -0.230700
     21 CMB        80.9427   63.0850   40.5455 a3         1 CLA     -0.180800
     22 CMC        74.2245   60.2783   44.2050 a3         1 CLA     -0.134000
     23 CMD        72.1796   56.6017   37.1933 a3         1 CLA     -0.141100
     24 C1         81.8405   55.7902   33.7992 a2         1 CLA      0.023000
     25 C1A        77.8794   58.8181   36.3743 ac         1 CLA     -0.015100
     26 C1B        78.9982   61.5457   39.6754 cr         1 CLA      0.054700
     27 C1C        75.3531   60.3584   41.9177 cn         1 CLA     -0.005600
     28 C1D        74.0757   58.0551   38.4315 ap         1 CLA     -0.047300
     29 O1A        80.6512   57.2014   31.8108 o2         1 CLA     -0.610800
     30 O1D        78.0254   55.8230   33.6479 o2         1 CLA     -0.558200
     31 C2         82.5893   55.2719   35.0240 c8         1 CLA     -0.325100
     32 C2A        79.1595   58.9934   35.4630 a1         1 CLA      0.098600
     33 C2B        79.5731   62.2956   40.7527 cb         1 CLA      0.088500
     34 C2C        74.2552   59.9266   42.8184 cb         1 CLA      0.053700
     35 C2D        73.5009   57.2659   37.2945 cb         1 CLA      0.058900
     36 O2A        81.5030   57.2306   33.9392 o1         1 CLA     -0.437200
     37 O2D        77.3480   55.3293   35.8137 o1         1 CLA     -0.357600
     38 C3         83.3724   54.1112   35.1667 c5         1 CLA      0.031200
     39 C3A        80.0378   59.9348   36.3641 a1         1 CLA      0.166800
     40 C3B        78.6519   62.2298   41.8624 cb         1 CLA      0.035000
     41 C3C        73.4108   59.0481   42.0786 cb         1 CLA     -0.089900
     42 C3D        74.4998   57.2121   36.3516 cb         1 CLA     -0.035900
     43 C4         82.8403   52.7449   35.6984 a3         1 CLA     -0.053300
     44 C4A        79.1452   60.2986   37.5073 ac         1 CLA      0.001800
     45 C4B        77.5392   61.4311   41.4018 cn         1 CLA     -0.020900
     46 C4C        74.0529   58.9631   40.7638 cr         1 CLA     -0.044400
     47 C4D        75.5717   58.0045   36.9209 c6         1 CLA     -0.046000
     48 C5         84.9712   54.1527   35.1035 a2         1 CLA     -0.070400
     49 C6         85.6741   55.4479   35.5198 a2         1 CLA      0.043900
     50 C7         85.9104   55.3792   37.0404 a2         1 CLA     -0.150000
     51 C8         86.0747   56.8444   37.5822 a1         1 CLA      0.064200
     52 C9         87.3065   57.4523   36.9317 a3         1 CLA     -0.259300
     53 C10        86.1468   56.8673   39.1416 a2         1 CLA     -0.071900
     54 C11        85.9444   58.2379   39.7258 a2         1 CLA      0.014500
     55 C12        85.9269   58.1365   41.2501 a2         1 CLA     -0.112100
     56 C13        85.7699   59.5759   41.9127 a1         1 CLA      0.089200
     57 C14        86.9578   60.4450   41.8248 a3         1 CLA     -0.239100
     58 C15        85.3851   59.2420   43.3851 a2         1 CLA     -0.102200
     59 C16        84.8617   60.4336   44.2593 a2         1 CLA      0.023900
     60 C17        84.5005   60.0630   45.6724 a2         1 CLA     -0.105700
     61 C18        84.1476   61.1690   46.6392 a1         1 CLA      0.206800
     62 C19        82.7827   61.7767   46.2310 a3         1 CLA     -0.280100
     63 C20        84.0796   60.7341   48.1255 a3         1 CLA     -0.280100
     64 NC         75.2263   59.7111   40.6691 nx         1 CLA     -0.309200
     65 MG         76.4903   59.8513   38.9830 mg         1 CLA      0.895000
     66 HMD3       71.9202   56.0753   38.0662 dc         1 CLA      0.064300
     67 HMD2       71.3691   57.2827   36.9701 dc         1 CLA      0.064300
     68 HMD1       72.1757   55.9146   36.3937 dc         1 CLA      0.064300
     69 HMC3       74.2373   61.3714   44.4205 dc         1 CLA      0.052100
     70 HMC2       73.3188   59.8357   44.5597 dc         1 CLA      0.052100
     71 HMC1       75.0535   59.6771   44.6015 dc         1 CLA      0.052100
     72 HMB3       80.9608   63.3938   39.5039 dc         1 CLA      0.063600
     73 HMB2       80.9457   63.9394   41.2151 dc         1 CLA      0.063600
     74 HMB1       81.8643   62.3986   40.6158 dc         1 CLA      0.063600
     75 HMA3       81.3697   58.5892   37.5689 dc         1 CLA      0.058300
     76 HMA2       82.0968   59.0567   36.0740 dc         1 CLA      0.058300
     77 HMA1       82.2059   60.1015   37.3174 dc         1 CLA      0.058300
     78 HED3       78.9452   54.0263   36.2009 dc         1 CLA      0.079300
     79 HED2       77.3630   53.4312   36.5657 dc         1 CLA      0.079300
     80 HED1       77.7347   53.4728   34.9061 dc         1 CLA      0.079300
     81 HBC3       73.0338   56.6762   43.5595 dc         1 CLA      0.016300
     82 HBC2       71.4274   56.5264   43.2019 dc         1 CLA      0.016300
     83 HBC1       72.6688   56.4735   41.9008 dc         1 CLA      0.016300
     84 HBB2       80.0411   63.9738   44.5988 da         1 CLA      0.183000
     85 HBB1       80.9456   63.0878   43.1820 da         1 CLA      0.183000
     86 HBA2       80.5739   59.8736   32.2881 dc         1 CLA      0.029400
     87 HBA1       81.2418   59.7283   33.8466 dc         1 CLA      0.029400
     88 HAC2       71.6849   58.8512   43.4460 dc         1 CLA      0.029300
     89 HAC1       71.4032   58.6708   41.7460 dc         1 CLA      0.029300
     90 HAA2       78.4221   58.8269   33.3709 dc         1 CLA      0.028700
     91 HAA1       78.7149   60.5267   33.8882 dc         1 CLA      0.028700
     92 H203       85.0667   60.4316   48.4821 dc         1 CLA      0.065600
     93 H202       83.8858   61.6198   48.7853 dc         1 CLA      0.065600
     94 H201       83.4267   59.8331   48.3205 dc         1 CLA      0.065600
     95 H193       82.7145   61.9979   45.2367 dc         1 CLA      0.065600
     96 H192       81.9897   61.0608   46.4100 dc         1 CLA      0.065600
     97 H191       82.5030   62.6276   46.9088 dc         1 CLA      0.065600
     98 H172       83.7902   59.2777   45.6369 dc         1 CLA      0.027600
     99 H171       85.4089   59.5154   46.1320 dc         1 CLA      0.027600
    100 H162       85.6165   61.1648   44.3138 dc         1 CLA      0.002900
    101 H161       83.9521   60.7771   43.7540 dc         1 CLA      0.002900
    102 H152       84.5976   58.5228   43.3547 dc         1 CLA      0.029100
    103 H151       86.2589   58.7754   43.7789 dc         1 CLA      0.029100
    104 H143       87.7897   60.0514   42.4607 dc         1 CLA      0.063600
    105 H142       87.3170   60.4555   40.8241 dc         1 CLA      0.063600
    106 H141       86.7709   61.4823   42.1378 dc         1 CLA      0.063600
    107 H122       85.0344   57.5788   41.5131 dc         1 CLA      0.032500
    108 H121       86.7635   57.7325   41.7457 dc         1 CLA      0.032500
    109 H112       86.7524   58.9419   39.5150 dc         1 CLA      0.006600
    110 H111       85.0714   58.6529   39.2493 dc         1 CLA      0.006600
    111 H102       85.3756   56.2228   39.5191 dc         1 CLA      0.024100
    112 H101       87.1026   56.3785   39.4389 dc         1 CLA      0.024100
    113 HHD        72.4947   57.7391   39.8043 da         1 CLA      0.174300
    114 HHC        76.5455   61.6190   43.2182 da         1 CLA      0.136800
    115 HHB        80.5883   61.5220   38.2684 da         1 CLA      0.138300
    116 HBD        76.4516   57.8119   33.8953 dc         1 CLA      0.107700
    117 HAB        77.9475   63.4183   43.6391 da         1 CLA      0.155200
    118 H93        88.0546   56.6859   37.1402 dc         1 CLA      0.069500
    119 H92        87.2387   57.6651   35.7838 dc         1 CLA      0.069500
    120 H91        87.6465   58.2897   37.5348 dc         1 CLA      0.069500
    121 H8         85.2424   57.4892   37.2615 dc         1 CLA      0.029300
    122 H72        85.0802   54.7974   37.4905 dc         1 CLA      0.044400
    123 H71        86.8180   54.8603   37.3488 dc         1 CLA      0.044400
    124 H62        86.6043   55.5545   34.8832 dc         1 CLA      0.015600
    125 H61        84.9930   56.3049   35.3078 dc         1 CLA      0.015600
    126 H52        85.5727   53.3530   35.6033 dc         1 CLA      0.033200
    127 H51        85.1772   54.0110   34.0416 dc         1 CLA      0.033200
    128 H43        83.3198   51.9319   35.1704 dc         1 CLA      0.037000
    129 H42        82.9622   52.7649   36.8127 dc         1 CLA      0.037000
    130 H41        81.7262   52.5653   35.5635 dc         1 CLA      0.037000
    131 H3A        80.1999   60.8564   35.7422 dc         1 CLA      0.041100
    132 H2A        79.6689   58.0534   35.4520 dc         1 CLA      0.083100
    133 H2         82.5253   55.8506   35.9279 da         1 CLA      0.180900
    134 H18        84.7280   62.0795   46.4133 dc         1 CLA     -0.003900
    135 H13        84.9161   60.0075   41.3636 dc         1 CLA      0.019700
    136 H12        80.9172   55.3257   33.5353 dc         1 CLA      0.120400
    137 H11        82.5969   55.6307   32.9988 dc         1 CLA      0.120400
    138 C1         68.7688   61.9054   49.4597 Z1         2 LUT      0.509236
    139 C2         67.3351   61.7449   50.1412 Z2         2 LUT     -0.434695
    140 C3         66.4257   62.9744   50.5603 Z3         2 LUT      0.437453
    141 O3         66.5951   63.2616   51.9421 S1         2 LUT     -0.547129
    142 C4         66.9730   64.1685   49.7758 Z4         2 LUT     -0.468603
    143 C5         67.5312   63.8901   48.4509 Z5         2 LUT      0.279246
    144 C6         68.4372   62.9044   48.2836 Z6         2 LUT     -0.305473
    145 C7         68.9340   62.4976   46.9421 Z7         2 LUT      0.069402
    146 C8         69.7171   63.2450   46.1378 Z8         2 LUT     -0.191631
    147 C9         70.3264   62.9236   44.8466 Z9         2 LUT      0.196698
    148 C10        71.3770   63.7004   44.3104 Y1         2 LUT     -0.208611
    149 C11        72.2343   63.5156   43.1931 Y2         2 LUT      0.030784
    150 C12        73.3775   64.1866   42.8426 Y3         2 LUT     -0.220316
    151 C13        74.3739   63.9491   41.8324 Y4         2 LUT      0.215937
    152 C14        75.5583   64.6586   42.0078 Y5         2 LUT     -0.185793
    153 C15        76.7664   64.7137   41.2141 Y6         2 LUT     -0.057835
    154 C16        69.2892   60.5879   49.1542 Y7         2 LUT     -0.405615
    155 C17        69.6582   62.5349   50.5709 Y7         2 LUT     -0.405615
    156 C18        67.0222   64.7834   47.3878 Y9         2 LUT     -0.369639
    157 C19        69.8667   61.5818   44.1703 W1         2 LUT     -0.333362
    158 C20        73.9158   63.3911   40.4486 W2         2 LUT     -0.323439
    159 C21        87.6914   66.6978   34.8984 Z1         2 LUT      0.406104
    160 C22        88.5545   66.2975   33.6526 Z2         2 LUT     -0.404965
    161 C23        88.5730   67.2549   32.4547 Z3         2 LUT      0.391255
    162 O23        89.2424   66.7576   31.3104 S1         2 LUT     -0.528210
    163 C24        87.1703   67.7949   32.1336 W6         2 LUT     -0.258361
    164 C25        86.1371   67.5985   32.9464 Z5         2 LUT      0.133546
    165 C26        86.1986   67.0395   34.3940 W8         2 LUT     -0.147008
    166 C27        85.3665   67.7489   35.3951 Z7         2 LUT      0.023843
    167 C28        84.3731   67.2334   36.2147 Z8         2 LUT     -0.216987
    168 C29        83.6751   67.7568   37.4017 Z9         2 LUT      0.206524
    169 C30        82.6666   67.0349   37.9646 Y1         2 LUT     -0.215556
    170 C31        81.9385   67.2630   39.2156 Y2         2 LUT      0.025142
    171 C32        80.8502   66.4543   39.5380 Y3         2 LUT     -0.212209
    172 C33        80.0062   66.4275   40.6398 Y4         2 LUT      0.240937
    173 C34        78.9482   65.6085   40.6247 Y5         2 LUT     -0.218862
    174 C35        77.8161   65.5523   41.4844 Y6         2 LUT     -0.023547
    175 C36        88.4505   67.9251   35.5019 Y7         2 LUT     -0.393485
    176 C37        87.7517   65.5120   35.9655 Y7         2 LUT     -0.393485
    177 C38        84.7961   68.1353   32.5510 Y9         2 LUT     -0.387526
    178 C39        83.9716   69.0666   38.0520 W1         2 LUT     -0.322618
    179 C40        80.3533   67.4901   41.7364 W2         2 LUT     -0.358472
    180 H403       79.7717   67.4483   42.6573 R7         2 LUT      0.097720
    181 H402       81.3266   67.3901   42.0763 R7         2 LUT      0.097720
    182 H401       80.2407   68.5672   41.3574 R7         2 LUT      0.097720
    183 H393       84.3040   68.9832   39.0674 R4         2 LUT      0.082505
    184 H392       84.6523   69.6707   37.3895 R4         2 LUT      0.082505
    185 H391       83.1616   69.7421   38.0531 R4         2 LUT      0.082505
    186 H383       84.8903   68.9119   31.6981 R1         2 LUT      0.104030
    187 H382       84.1233   67.3156   32.3320 R1         2 LUT      0.104030
    188 H381       84.2318   68.7038   33.3745 R1         2 LUT      0.104030
    189 H373       87.1430   64.6775   35.7537 T4         2 LUT      0.089537
    190 H372       88.6684   65.0548   36.0671 T4         2 LUT      0.089537
    191 H371       87.3873   65.8965   36.9566 T4         2 LUT      0.089537
    192 H363       88.4511   68.7856   34.8330 T4         2 LUT      0.089537
    193 H362       87.9991   68.2797   36.4324 T4         2 LUT      0.089537
    194 H361       89.4727   67.7734   35.8183 T4         2 LUT      0.089537
    195 H222       89.5697   66.0765   33.9599 U2         2 LUT      0.127376
    196 H221       88.1997   65.3155   33.2284 U2         2 LUT      0.127376
    197 H203       73.2528   64.0459   39.8681 R7         2 LUT      0.087068
    198 H202       74.7432   63.1483   39.8435 R7         2 LUT      0.087068
    199 H201       73.3154   62.4883   40.5937 R7         2 LUT      0.087068
    200 H193       68.8001   61.4015   44.2147 R4         2 LUT      0.089716
    201 H192       70.2242   61.4609   43.1453 R4         2 LUT      0.089716
    202 H191       70.2347   60.7082   44.7031 R4         2 LUT      0.089716
    203 H183       66.5506   64.2750   46.5469 R1         2 LUT      0.094572
    204 H182       66.2157   65.4154   47.6580 R1         2 LUT      0.094572
    205 H181       67.8248   65.3597   46.9487 R1         2 LUT      0.094572
    206 H173       70.6537   62.7343   50.2216 T4         2 LUT      0.093752
    207 H172       69.4170   63.6185   50.7531 T4         2 LUT      0.093752
    208 H171       69.6840   61.9693   51.5274 T4         2 LUT      0.093752
    209 H163       68.6106   59.9568   48.6235 T4         2 LUT      0.093752
    210 H162       70.1759   60.6275   48.5052 T4         2 LUT      0.093752
    211 H161       69.5587   60.1246   50.1079 T4         2 LUT      0.093752
    212 HO3        66.2442   62.4996   52.4836 Q1         2 LUT      0.300121
    213 H8         70.0203   64.2013   46.5825 U7         2 LUT      0.080784
    214 H7         68.5751   61.5273   46.5194 U6         2 LUT      0.042190
    215 H42        66.1721   64.8850   49.8131 U5         2 LUT      0.145166
    216 H41        67.7597   64.6712   50.3983 U5         2 LUT      0.145166
    217 H35        77.7632   66.1225   42.3969 T3         2 LUT      0.077919
    218 H34        78.8368   65.0042   39.7497 T2         2 LUT      0.073626
    219 H32        80.5175   65.6771   38.7533 T1         2 LUT      0.092510
    220 H31        82.3562   67.9846   39.9467 U9         2 LUT      0.070048
    221 H30        82.3710   66.0805   37.4992 U8         2 LUT      0.085442
    222 H3         65.3772   62.9339   50.2936 U3         2 LUT     -0.031596
    223 H28        84.0677   66.1958   35.9523 U7         2 LUT      0.084728
    224 H27        85.8326   68.6814   35.5531 U6         2 LUT      0.087291
    225 H26        85.7233   66.0079   34.2298 Q6         2 LUT      0.075325
    226 H24        87.0822   68.4344   31.2111 Q5         2 LUT      0.094482
    227 H23        89.2542   68.0206   32.7675 U3         2 LUT     -0.024869
    228 H22        66.6854   61.2469   49.4365 U2         2 LUT      0.127376
    229 H21        67.3397   60.9933   51.0588 U2         2 LUT      0.127376
    230 H15        76.8537   64.0263   40.3654 T3         2 LUT      0.093200
    231 H14        75.6579   65.2446   42.8957 T2         2 LUT      0.068865
    232 H12        73.6365   65.0601   43.5274 T1         2 LUT      0.095507
    233 H11        71.9626   62.6829   42.5484 U9         2 LUT      0.068930
    234 H10        71.7670   64.4770   44.9599 U8         2 LUT      0.083911
    235 H1         88.7492   66.0889   30.8426 Q1         2 LUT      0.297311
@<TRIPOS>BOND
    1     6     1 1
    2     7     2 1
    3     8     3 1
    4     9     4 1
    5    11     4 1
    6    12     6 1
    7    13     9 1
    8    16     9 1
    9    25     5 1
   10    25    16 1
   11    26    10 1
   12    26    17 1
   13    27    18 1
   14    28    14 1
   15    28    19 1
   16    29    12 1
   17    30    13 1
   18    31    24 1
   19    32     1 1
   20    32    25 1
   21    33    21 1
   22    33    26 1
   23    34    22 1
   24    34    27 1
   25    35    23 1
   26    35    28 1
   27    36    12 1
   28    36    24 1
   29    37    13 1
   30    37    15 1
   31    38    31 1
   32    39    20 1
   33    39    32 1
   34    40     2 1
   35    40    33 1
   36    41     3 1
   37    41    34 1
   38    42     4 1
   39    42    35 1
   40    43    38 1
   41    44     5 1
   42    44    17 1
   43    44    39 1
   44    45    10 1
   45    45    18 1
   46    45    40 1
   47    46    19 1
   48    46    41 1
   49    47    14 1
   50    47    16 1
   51    47    42 1
   52    48    38 1
   53    49    48 1
   54    50    49 1
   55    51    50 1
   56    52    51 1
   57    53    51 1
   58    54    53 1
   59    55    54 1
   60    56    55 1
   61    57    56 1
   62    58    56 1
   63    59    58 1
   64    60    59 1
   65    61    60 1
   66    62    61 1
   67    63    61 1
   68    64    27 1
   69    64    46 1
   70    65     5 1
   71    65    10 1
   72    65    64 1
   73    65    14 1
   74    66    23 1
   75    67    23 1
   76    68    23 1
   77    69    22 1
   78    70    22 1
   79    71    22 1
   80    72    21 1
   81    73    21 1
   82    74    21 1
   83    75    20 1
   84    76    20 1
   85    77    20 1
   86    78    15 1
   87    79    15 1
   88    80    15 1
   89    81     8 1
   90    82     8 1
   91    83     8 1
   92    84     7 1
   93    85     7 1
   94    86     6 1
   95    87     6 1
   96    88     3 1
   97    89     3 1
   98    90     1 1
   99    91     1 1
  100    92    63 1
  101    93    63 1
  102    94    63 1
  103    95    62 1
  104    96    62 1
  105    97    62 1
  106    98    60 1
  107    99    60 1
  108   100    59 1
  109   101    59 1
  110   102    58 1
  111   103    58 1
  112   104    57 1
  113   105    57 1
  114   106    57 1
  115   107    55 1
  116   108    55 1
  117   109    54 1
  118   110    54 1
  119   111    53 1
  120   112    53 1
  121   113    19 1
  122   114    18 1
  123   115    17 1
  124   116     9 1
  125   117     2 1
  126   118    52 1
  127   119    52 1
  128   120    52 1
  129   121    51 1
  130   122    50 1
  131   123    50 1
  132   124    49 1
  133   125    49 1
  134   126    48 1
  135   127    48 1
  136   128    43 1
  137   129    43 1
  138   130    43 1
  139   131    39 1
  140   132    32 1
  141   133    31 1
  142   134    61 1
  143   135    56 1
  144   136    24 1
  145   137    24 1
  146   139   138 1
  147   140   139 1
  148   141   140 1
  149   142   140 1
  150   143   142 1
  151   144   138 1
  152   144   143 1
  153   145   144 1
  154   146   145 1
  155   147   146 1
  156   148   147 1
  157   149   148 1
  158   150   149 1
  159   151   150 1
  160   152   151 1
  161   153   152 1
  162   154   138 1
  163   155   138 1
  164   156   143 1
  165   157   147 1
  166   158   151 1
  167   160   159 1
  168   161   160 1
  169   162   161 1
  170   163   161 1
  171   164   163 1
  172   165   159 1
  173   165   164 1
  174   166   165 1
  175   167   166 1
  176   168   167 1
  177   169   168 1
  178   170   169 1
  179   171   170 1
  180   172   171 1
  181   173   172 1
  182   174   153 1
  183   174   173 1
  184   175   159 1
  185   176   159 1
  186   177   164 1
  187   178   168 1
  188   179   172 1
  189   180   179 1
  190   181   179 1
  191   182   179 1
  192   183   178 1
  193   184   178 1
  194   185   178 1
  195   186   177 1
  196   187   177 1
  197   188   177 1
  198   189   176 1
  199   190   176 1
  200   191   176 1
  201   192   175 1
  202   193   175 1
  203   194   175 1
  204   195   160 1
  205   196   160 1
  206   197   158 1
  207   198   158 1
  208   199   158 1
  209   200   157 1
  210   201   157 1
  211   202   157 1
  212   203   156 1
  213   204   156 1
  214   205   156 1
  215   206   155 1
  216   207   155 1
  217   208   155 1
  218   209   154 1
  219   210   154 1
  220   211   154 1
  221   212   141 1
  222   213   146 1
  223   214   145 1
  224   215   142 1
  225   216   142 1
  226   217   174 1
  227   218   173 1
  228   219   171 1
  229   220   170 1
  230   221   169 1
  231   222   140 1
  232   223   167 1
  233   224   166 1
  234   225   165 1
  235   226   163 1
  236   227   161 1
  237   228   139 1
  238   229   139 1
  239   230   153 1
  240   231   152 1
  241   232   150 1
  242   233   149 1
  243   234   148 1
  244   235   162 1
  245   65    153 1
  246   65    174 1
@<TRIPOS>SUBSTRUCTURE
      1 CLA               1 ****               0 ****  **** 
      2 LUT             138 ****               0 ****  **** 
