@<TRIPOS>MOLECULE
Cpptraj generated mol2 file.
  235   246     2     0     0
SMALL
USER_CHARGES


@<TRIPOS>ATOM
      1 CAA        76.9506   58.0120   33.9210 a2         1 CLA     -0.055900
      2 CAB        76.5724   61.4383   42.8573 c8         1 CLA     -0.148500
      3 CAC        69.8026   57.3165   42.1598 a2         1 CLA     -0.012600
      4 CAD        72.8261   55.2607   34.7761 ck         1 CLA      0.398800
      5 NA         75.8794   58.0602   37.2829 ns         1 CLA     -0.225500
      6 CBA        78.3058   57.8986   33.0990 a2         1 CLA     -0.135000
      7 CBB        76.1640   61.0181   44.0797 c0         1 CLA     -0.395200
      8 CBC        69.7982   55.8159   42.2953 a3         1 CLA     -0.037700
      9 CBD        74.2292   55.9454   34.4598 a1         1 CLA     -0.053900
     10 NB         75.4994   59.6110   39.7991 nm         1 CLA     -0.295700
     11 OBD        72.1579   54.5593   34.0040 o2         1 CLA     -0.494600
     12 CGA        78.6970   56.4588   32.8051 c4         1 CLA      0.827000
     13 CGD        75.2347   54.9211   34.0690 c4         1 CLA      0.655300
     14 ND         73.0619   57.2001   37.7271 nm         1 CLA     -0.291600
     15 CED        76.0082   52.8074   34.9648 a3         1 CLA      0.005400
     16 CHA        74.6143   56.7064   35.8150 cs         1 CLA     -0.123800
     17 CHB        77.5334   59.4565   38.3459 aa         1 CLA     -0.291900
     18 CHC        74.0840   59.9029   41.8627 aa         1 CLA     -0.090400
     19 CHD        71.1351   57.0144   39.3388 aa         1 CLA     -0.052000
     20 CMA        79.4124   57.4893   36.7215 a3         1 CLA     -0.230700
     21 CMB        78.7696   61.4023   40.5984 a3         1 CLA     -0.180800
     22 CMC        71.7493   59.3217   43.8629 a3         1 CLA     -0.134000
     23 CMD        69.9647   55.0446   37.0393 a3         1 CLA     -0.141100
     24 C1         79.7647   54.5795   33.6611 a2         1 CLA      0.023000
     25 C1A        75.7615   57.4296   36.1392 ac         1 CLA     -0.015100
     26 C1B        76.8305   59.9107   39.4842 cr         1 CLA      0.054700
     27 C1C        72.9967   59.1195   41.5489 cn         1 CLA     -0.005600
     28 C1D        71.8173   56.6272   38.1353 ap         1 CLA     -0.047300
     29 O1A        78.3022   55.7728   31.9186 o2         1 CLA     -0.610800
     30 O1D        75.5794   54.5465   32.9597 o2         1 CLA     -0.558200
     31 C2         80.1327   54.0202   34.9982 c8         1 CLA     -0.325100
     32 C2A        77.0849   57.4555   35.3543 a1         1 CLA      0.098600
     33 C2B        77.4208   60.6816   40.5964 cb         1 CLA      0.088500
     34 C2C        71.8995   58.7579   42.4446 cb         1 CLA      0.053700
     35 C2D        71.3559   55.7276   37.0375 cb         1 CLA      0.058900
     36 O2A        79.5350   56.0230   33.7086 o1         1 CLA     -0.437200
     37 O2D        75.4674   54.1974   35.2375 o1         1 CLA     -0.357600
     38 C3         80.7250   52.8554   35.2898 c5         1 CLA      0.031200
     39 C3A        78.1273   58.2224   36.2595 a1         1 CLA      0.166800
     40 C3B        76.4421   60.7677   41.5821 cb         1 CLA      0.035000
     41 C3C        71.0366   57.9957   41.6685 cb         1 CLA     -0.089900
     42 C3D        72.4207   55.7391   36.1309 cb         1 CLA     -0.035900
     43 C4         80.0160   51.5105   35.4450 a3         1 CLA     -0.053300
     44 C4A        77.1132   58.6151   37.3485 ac         1 CLA      0.001800
     45 C4B        75.2828   60.1184   41.0793 cn         1 CLA     -0.020900
     46 C4C        71.5694   57.8885   40.3296 cr         1 CLA     -0.044400
     47 C4D        73.4462   56.5674   36.6196 c6         1 CLA     -0.046000
     48 C5         82.2372   52.7489   35.4669 a2         1 CLA     -0.070400
     49 C6         82.9689   54.1195   35.7153 a2         1 CLA      0.043900
     50 C7         82.8869   54.5707   37.2430 a2         1 CLA     -0.150000
     51 C8         83.2026   56.0948   37.4068 a1         1 CLA      0.064200
     52 C9         84.5547   56.4638   36.6923 a3         1 CLA     -0.259300
     53 C10        83.1662   56.5524   38.8852 a2         1 CLA     -0.071900
     54 C11        81.9766   56.2081   39.8082 a2         1 CLA      0.014500
     55 C12        81.7989   56.9361   41.1524 a2         1 CLA     -0.112100
     56 C13        80.5016   56.6569   42.0278 a1         1 CLA      0.089200
     57 C14        79.2739   57.5947   41.7731 a3         1 CLA     -0.239100
     58 C15        80.8242   56.5028   43.5322 a2         1 CLA     -0.102200
     59 C16        80.9174   57.8030   44.4382 a2         1 CLA      0.023900
     60 C17        81.8651   58.8499   43.8310 a2         1 CLA     -0.105700
     61 C18        81.9389   60.1373   44.6861 a1         1 CLA      0.206800
     62 C19        80.5503   60.8966   44.7742 a3         1 CLA     -0.280100
     63 C20        82.5770   59.8598   46.0702 a3         1 CLA     -0.280100
     64 NC         72.7667   58.6171   40.2701 nx         1 CLA     -0.309200
     65 MG         74.2903   58.4989   38.7058 mg         1 CLA      0.895000
     66 HMD3       69.1260   55.6645   36.8194 dc         1 CLA      0.064300
     67 HMD2       69.8377   54.2653   36.2586 dc         1 CLA      0.064300
     68 HMD1       69.9851   54.6098   38.0245 dc         1 CLA      0.064300
     69 HMC3       70.7979   59.1480   44.2883 dc         1 CLA      0.052100
     70 HMC2       72.4503   58.8081   44.4556 dc         1 CLA      0.052100
     71 HMC1       71.9954   60.3303   43.8537 dc         1 CLA      0.052100
     72 HMB3       79.5932   60.7918   40.9771 dc         1 CLA      0.063600
     73 HMB2       78.9247   61.8963   39.6334 dc         1 CLA      0.063600
     74 HMB1       78.7419   62.2875   41.3208 dc         1 CLA      0.063600
     75 HMA3       79.0752   56.6632   37.3989 dc         1 CLA      0.058300
     76 HMA2       79.9785   57.0123   35.9664 dc         1 CLA      0.058300
     77 HMA1       80.1192   58.0542   37.3210 dc         1 CLA      0.058300
     78 HED3       77.0649   52.9127   34.7702 dc         1 CLA      0.079300
     79 HED2       75.9213   52.1194   35.7843 dc         1 CLA      0.079300
     80 HED1       75.6012   52.3484   34.0386 dc         1 CLA      0.079300
     81 HBC3       70.0071   55.2002   41.4367 dc         1 CLA      0.016300
     82 HBC2       70.6712   55.4920   42.9134 dc         1 CLA      0.016300
     83 HBC1       68.8199   55.5354   42.6531 dc         1 CLA      0.016300
     84 HBB2       76.4051   61.5824   44.9916 da         1 CLA      0.183000
     85 HBB1       75.8168   60.0118   44.1702 da         1 CLA      0.183000
     86 HBA2       77.9910   58.3503   32.1054 dc         1 CLA      0.029400
     87 HBA1       79.0934   58.4169   33.6205 dc         1 CLA      0.029400
     88 HAC2       69.5545   57.7082   43.1209 dc         1 CLA      0.029300
     89 HAC1       68.9600   57.4847   41.5042 dc         1 CLA      0.029300
     90 HAA2       76.1065   57.6506   33.3609 dc         1 CLA      0.028700
     91 HAA1       76.8017   59.0567   34.1726 dc         1 CLA      0.028700
     92 H203       81.9456   59.1378   46.5517 dc         1 CLA      0.065600
     93 H202       83.5471   59.5264   46.1553 dc         1 CLA      0.065600
     94 H201       82.4111   60.7557   46.7253 dc         1 CLA      0.065600
     95 H193       79.7508   60.3479   45.3524 dc         1 CLA      0.065600
     96 H192       80.6782   61.8087   45.2591 dc         1 CLA      0.065600
     97 H191       80.1730   61.1294   43.8253 dc         1 CLA      0.065600
     98 H172       82.8236   58.4082   43.7800 dc         1 CLA      0.027600
     99 H171       81.7705   59.1005   42.7983 dc         1 CLA      0.027600
    100 H162       79.8813   58.3080   44.5187 dc         1 CLA      0.002900
    101 H161       81.1807   57.6028   45.4455 dc         1 CLA      0.002900
    102 H152       80.0403   55.8869   43.9714 dc         1 CLA      0.029100
    103 H151       81.7739   56.0027   43.6531 dc         1 CLA      0.029100
    104 H143       79.4449   58.6567   42.0317 dc         1 CLA      0.063600
    105 H142       79.0477   57.6773   40.6914 dc         1 CLA      0.063600
    106 H141       78.4193   57.4564   42.4188 dc         1 CLA      0.063600
    107 H122       82.6794   56.6892   41.7941 dc         1 CLA      0.032500
    108 H121       81.8879   58.0690   40.9774 dc         1 CLA      0.032500
    109 H112       81.1346   56.5148   39.2328 dc         1 CLA      0.006600
    110 H111       81.9523   55.0772   40.0341 dc         1 CLA      0.006600
    111 H102       84.0489   56.3236   39.4102 dc         1 CLA      0.024100
    112 H101       83.1816   57.6569   38.8270 dc         1 CLA      0.024100
    113 HHD        70.2242   56.5151   39.5989 da         1 CLA      0.174300
    114 HHC        74.0500   60.3274   42.8231 da         1 CLA      0.136800
    115 HHB        78.5314   59.9081   38.2708 da         1 CLA      0.138300
    116 HBD        73.9341   56.7000   33.6949 dc         1 CLA      0.107700
    117 HAB        76.9947   62.4262   42.8032 da         1 CLA      0.155200
    118 H93        84.9650   57.3794   37.0045 dc         1 CLA      0.069500
    119 H92        85.3823   55.7992   36.9749 dc         1 CLA      0.069500
    120 H91        84.4587   56.5698   35.5693 dc         1 CLA      0.069500
    121 H8         82.4579   56.7513   36.9816 dc         1 CLA      0.029300
    122 H72        81.9569   54.3021   37.6348 dc         1 CLA      0.044400
    123 H71        83.6338   54.0590   37.8115 dc         1 CLA      0.044400
    124 H62        84.0509   54.0290   35.3865 dc         1 CLA      0.015600
    125 H61        82.5698   54.8378   34.9419 dc         1 CLA      0.015600
    126 H52        82.5516   52.1006   36.3270 dc         1 CLA      0.033200
    127 H51        82.5935   52.2201   34.5678 dc         1 CLA      0.033200
    128 H43        80.6426   50.8545   34.7579 dc         1 CLA      0.037000
    129 H42        80.1248   51.2171   36.5122 dc         1 CLA      0.037000
    130 H41        78.9552   51.4233   35.2544 dc         1 CLA      0.037000
    131 H3A        78.4838   59.0124   35.6749 dc         1 CLA      0.041100
    132 H2A        77.4129   56.3956   35.2909 dc         1 CLA      0.083100
    133 H2         79.9890   54.6106   35.9002 da         1 CLA      0.180900
    134 H18        82.6809   60.6957   44.1407 dc         1 CLA     -0.003900
    135 H13        80.2067   55.6986   41.6978 dc         1 CLA      0.019700
    136 H12        78.8816   54.0348   33.4604 dc         1 CLA      0.120400
    137 H11        80.5143   54.1852   32.9062 dc         1 CLA      0.120400
    138 C1         66.8571   60.9598   49.3924 Z1         2 LUT      0.509236
    139 C2         67.1846   62.1818   50.2652 Z2         2 LUT     -0.434695
    140 C3         65.9577   63.1328   50.5611 Z3         2 LUT      0.437453
    141 O3         66.5266   64.3306   51.0633 S1         2 LUT     -0.547129
    142 C4         65.0922   63.2270   49.3470 Z4         2 LUT     -0.468603
    143 C5         65.5241   62.5412   48.0468 Z5         2 LUT      0.279246
    144 C6         66.2611   61.4010   48.0431 Z6         2 LUT     -0.305473
    145 C7         66.9582   61.0328   46.8405 Z7         2 LUT      0.069402
    146 C8         67.8399   61.6898   46.0655 Z8         2 LUT     -0.191631
    147 C9         68.3818   61.3143   44.8103 Z9         2 LUT      0.196698
    148 C10        69.3117   62.1463   44.2400 Y1         2 LUT     -0.208611
    149 C11        69.9708   62.2234   42.9656 Y2         2 LUT      0.030784
    150 C12        71.0480   63.0507   42.7334 Y3         2 LUT     -0.220316
    151 C13        71.9689   63.0161   41.6219 Y4         2 LUT      0.215937
    152 C14        73.1933   63.6067   41.8079 Y5         2 LUT     -0.185793
    153 C15        74.2378   63.5949   40.8506 Y6         2 LUT     -0.057835
    154 C16        66.0418   60.0687   50.3690 Y7         2 LUT     -0.405615
    155 C17        68.1558   60.2132   49.1994 Y7         2 LUT     -0.405615
    156 C18        65.3100   63.4400   46.8972 Y9         2 LUT     -0.369639
    157 C19        67.8186   60.2042   44.1246 W1         2 LUT     -0.333362
    158 C20        71.6592   62.2521   40.3828 W2         2 LUT     -0.323439
    159 C21        85.4562   64.5202   34.5710 Z1         2 LUT      0.406104
    160 C22        86.1613   64.0425   33.3136 Z2         2 LUT     -0.404965
    161 C23        86.4860   65.1264   32.2452 Z3         2 LUT      0.391255
    162 O23        87.2190   64.5550   31.1738 S1         2 LUT     -0.528210
    163 C24        85.3073   66.0721   32.0617 W6         2 LUT     -0.258361
    164 C25        84.2319   66.0593   32.8533 Z5         2 LUT      0.133546
    165 C26        84.0158   65.1422   34.0785 W8         2 LUT     -0.147008
    166 C27        83.3417   65.9389   35.1871 Z7         2 LUT      0.023843
    167 C28        82.3111   65.3863   35.9872 Z8         2 LUT     -0.216987
    168 C29        81.8189   65.7124   37.2744 Z9         2 LUT      0.206524
    169 C30        80.7173   65.0440   37.6711 Y1         2 LUT     -0.215556
    170 C31        79.9603   65.2695   38.9101 Y2         2 LUT      0.025142
    171 C32        78.7286   64.6556   39.0959 Y3         2 LUT     -0.212209
    172 C33        77.8024   64.7949   40.1551 Y4         2 LUT      0.240937
    173 C34        76.5410   64.1203   40.1428 Y5         2 LUT     -0.218862
    174 C35        75.4459   64.0965   41.1477 Y6         2 LUT     -0.023547
    175 C36        86.4694   65.5013   35.2721 Y7         2 LUT     -0.393485
    176 C37        85.1616   63.1780   35.3560 Y7         2 LUT     -0.393485
    177 C38        83.1638   67.0258   32.4663 Y9         2 LUT     -0.387526
    178 C39        82.4758   66.7654   38.1395 W1         2 LUT     -0.322618
    179 C40        78.0527   65.8452   41.2440 W2         2 LUT     -0.358472
    180 H403       77.9155   66.8675   40.8764 R7         2 LUT      0.097720
    181 H402       77.5321   65.7034   42.1983 R7         2 LUT      0.097720
    182 H401       79.0604   65.7876   41.5992 R7         2 LUT      0.097720
    183 H393       82.7239   67.7310   37.7143 R4         2 LUT      0.082505
    184 H392       81.8525   67.0857   38.9311 R4         2 LUT      0.082505
    185 H391       83.3016   66.2456   38.6798 R4         2 LUT      0.082505
    186 H383       83.3661   67.6390   31.5994 R1         2 LUT      0.104030
    187 H382       82.2916   66.4977   32.1761 R1         2 LUT      0.104030
    188 H381       82.9496   67.6457   33.3230 R1         2 LUT      0.104030
    189 H373       84.3967   63.4346   36.0780 T4         2 LUT      0.089537
    190 H372       84.7518   62.3680   34.7716 T4         2 LUT      0.089537
    191 H371       85.9116   62.7645   35.9479 T4         2 LUT      0.089537
    192 H363       86.8572   66.2676   34.7011 T4         2 LUT      0.089537
    193 H362       86.0970   65.9011   36.1950 T4         2 LUT      0.089537
    194 H361       87.3918   64.9447   35.6113 T4         2 LUT      0.089537
    195 H222       87.1369   63.6339   33.6609 U2         2 LUT      0.127376
    196 H221       85.5060   63.3583   32.8132 U2         2 LUT      0.127376
    197 H203       71.8926   62.8027   39.4743 R7         2 LUT      0.087068
    198 H202       72.2834   61.2753   40.3196 R7         2 LUT      0.087068
    199 H201       70.6001   61.9723   40.2419 R7         2 LUT      0.087068
    200 H193       67.8333   59.3442   44.7804 R4         2 LUT      0.089716
    201 H192       66.7119   60.4601   43.9270 R4         2 LUT      0.089716
    202 H191       68.4028   59.9156   43.2672 R4         2 LUT      0.089716
    203 H183       66.0564   64.3499   46.9233 R1         2 LUT      0.094572
    204 H182       65.4603   62.8679   45.9841 R1         2 LUT      0.094572
    205 H181       64.3765   63.9772   46.7716 R1         2 LUT      0.094572
    206 H173       68.9358   60.7696   48.6336 T4         2 LUT      0.093752
    207 H172       68.6597   59.9131   50.1432 T4         2 LUT      0.093752
    208 H171       67.9031   59.4162   48.5459 T4         2 LUT      0.093752
    209 H163       66.5457   59.8713   51.3531 T4         2 LUT      0.093752
    210 H162       65.0671   60.5884   50.5894 T4         2 LUT      0.093752
    211 H161       65.9518   59.0900   49.8927 T4         2 LUT      0.093752
    212 HO3        65.8469   64.7679   51.5925 Q1         2 LUT      0.300121
    213 H8         68.0846   62.6476   46.4197 U7         2 LUT      0.080784
    214 H7         66.6237   60.1482   46.3630 U6         2 LUT      0.042190
    215 H42        64.2372   62.6152   49.6948 U5         2 LUT      0.145166
    216 H41        64.7753   64.2691   49.1727 U5         2 LUT      0.145166
    217 H35        75.4678   64.6139   42.0917 T3         2 LUT      0.077919
    218 H34        76.4386   63.4855   39.3758 T2         2 LUT      0.073626
    219 H32        78.4103   63.9529   38.2935 T1         2 LUT      0.092510
    220 H31        80.4151   65.8965   39.6135 U9         2 LUT      0.070048
    221 H30        80.3005   64.3831   36.8882 U8         2 LUT      0.085442
    222 H3         65.4142   62.6852   51.4151 U3         2 LUT     -0.031596
    223 H28        81.8325   64.5287   35.4894 U7         2 LUT      0.084728
    224 H27        83.7844   66.8477   35.5506 U6         2 LUT      0.087291
    225 H26        83.2662   64.3787   33.7607 Q6         2 LUT      0.075325
    226 H24        85.3624   66.7929   31.2381 Q5         2 LUT      0.094482
    227 H23        87.1684   65.7673   32.8002 U3         2 LUT     -0.024869
    228 H22        67.6133   62.0234   51.2586 U2         2 LUT      0.127376
    229 H21        67.9363   62.6895   49.8590 U2         2 LUT      0.127376
    230 H15        74.1238   63.2700   39.8445 T3         2 LUT      0.093200
    231 H14        73.5164   64.0440   42.8103 T2         2 LUT      0.068865
    232 H12        71.4028   63.6930   43.5330 T1         2 LUT      0.095507
    233 H11        69.8155   61.4821   42.1956 U9         2 LUT      0.068930
    234 H10        69.6682   62.8887   44.9429 U8         2 LUT      0.083911
    235 H1         86.6482   64.5340   30.3571 Q1         2 LUT      0.297311
@<TRIPOS>BOND
    1     6     1 1
    2     7     2 1
    3     8     3 1
    4     9     4 1
    5    11     4 1
    6    12     6 1
    7    13     9 1
    8    16     9 1
    9    25     5 1
   10    25    16 1
   11    26    10 1
   12    26    17 1
   13    27    18 1
   14    28    14 1
   15    28    19 1
   16    29    12 1
   17    30    13 1
   18    31    24 1
   19    32     1 1
   20    32    25 1
   21    33    21 1
   22    33    26 1
   23    34    22 1
   24    34    27 1
   25    35    23 1
   26    35    28 1
   27    36    12 1
   28    36    24 1
   29    37    13 1
   30    37    15 1
   31    38    31 1
   32    39    20 1
   33    39    32 1
   34    40     2 1
   35    40    33 1
   36    41     3 1
   37    41    34 1
   38    42     4 1
   39    42    35 1
   40    43    38 1
   41    44     5 1
   42    44    17 1
   43    44    39 1
   44    45    10 1
   45    45    18 1
   46    45    40 1
   47    46    19 1
   48    46    41 1
   49    47    14 1
   50    47    16 1
   51    47    42 1
   52    48    38 1
   53    49    48 1
   54    50    49 1
   55    51    50 1
   56    52    51 1
   57    53    51 1
   58    54    53 1
   59    55    54 1
   60    56    55 1
   61    57    56 1
   62    58    56 1
   63    59    58 1
   64    60    59 1
   65    61    60 1
   66    62    61 1
   67    63    61 1
   68    64    27 1
   69    64    46 1
   70    65     5 1
   71    65    10 1
   72    65    64 1
   73    65    14 1
   74    66    23 1
   75    67    23 1
   76    68    23 1
   77    69    22 1
   78    70    22 1
   79    71    22 1
   80    72    21 1
   81    73    21 1
   82    74    21 1
   83    75    20 1
   84    76    20 1
   85    77    20 1
   86    78    15 1
   87    79    15 1
   88    80    15 1
   89    81     8 1
   90    82     8 1
   91    83     8 1
   92    84     7 1
   93    85     7 1
   94    86     6 1
   95    87     6 1
   96    88     3 1
   97    89     3 1
   98    90     1 1
   99    91     1 1
  100    92    63 1
  101    93    63 1
  102    94    63 1
  103    95    62 1
  104    96    62 1
  105    97    62 1
  106    98    60 1
  107    99    60 1
  108   100    59 1
  109   101    59 1
  110   102    58 1
  111   103    58 1
  112   104    57 1
  113   105    57 1
  114   106    57 1
  115   107    55 1
  116   108    55 1
  117   109    54 1
  118   110    54 1
  119   111    53 1
  120   112    53 1
  121   113    19 1
  122   114    18 1
  123   115    17 1
  124   116     9 1
  125   117     2 1
  126   118    52 1
  127   119    52 1
  128   120    52 1
  129   121    51 1
  130   122    50 1
  131   123    50 1
  132   124    49 1
  133   125    49 1
  134   126    48 1
  135   127    48 1
  136   128    43 1
  137   129    43 1
  138   130    43 1
  139   131    39 1
  140   132    32 1
  141   133    31 1
  142   134    61 1
  143   135    56 1
  144   136    24 1
  145   137    24 1
  146   139   138 1
  147   140   139 1
  148   141   140 1
  149   142   140 1
  150   143   142 1
  151   144   138 1
  152   144   143 1
  153   145   144 1
  154   146   145 1
  155   147   146 1
  156   148   147 1
  157   149   148 1
  158   150   149 1
  159   151   150 1
  160   152   151 1
  161   153   152 1
  162   154   138 1
  163   155   138 1
  164   156   143 1
  165   157   147 1
  166   158   151 1
  167   160   159 1
  168   161   160 1
  169   162   161 1
  170   163   161 1
  171   164   163 1
  172   165   159 1
  173   165   164 1
  174   166   165 1
  175   167   166 1
  176   168   167 1
  177   169   168 1
  178   170   169 1
  179   171   170 1
  180   172   171 1
  181   173   172 1
  182   174   153 1
  183   174   173 1
  184   175   159 1
  185   176   159 1
  186   177   164 1
  187   178   168 1
  188   179   172 1
  189   180   179 1
  190   181   179 1
  191   182   179 1
  192   183   178 1
  193   184   178 1
  194   185   178 1
  195   186   177 1
  196   187   177 1
  197   188   177 1
  198   189   176 1
  199   190   176 1
  200   191   176 1
  201   192   175 1
  202   193   175 1
  203   194   175 1
  204   195   160 1
  205   196   160 1
  206   197   158 1
  207   198   158 1
  208   199   158 1
  209   200   157 1
  210   201   157 1
  211   202   157 1
  212   203   156 1
  213   204   156 1
  214   205   156 1
  215   206   155 1
  216   207   155 1
  217   208   155 1
  218   209   154 1
  219   210   154 1
  220   211   154 1
  221   212   141 1
  222   213   146 1
  223   214   145 1
  224   215   142 1
  225   216   142 1
  226   217   174 1
  227   218   173 1
  228   219   171 1
  229   220   170 1
  230   221   169 1
  231   222   140 1
  232   223   167 1
  233   224   166 1
  234   225   165 1
  235   226   163 1
  236   227   161 1
  237   228   139 1
  238   229   139 1
  239   230   153 1
  240   231   152 1
  241   232   150 1
  242   233   149 1
  243   234   148 1
  244   235   162 1
  245   65    153 1
  246   65    174 1
@<TRIPOS>SUBSTRUCTURE
      1 CLA               1 ****               0 ****  **** 
      2 LUT             138 ****               0 ****  **** 
