@<TRIPOS>MOLECULE
Cpptraj generated mol2 file.
  235   246     2     0     0
SMALL
USER_CHARGES


@<TRIPOS>ATOM
      1 CAA        78.7299   57.4255   34.5778 a2         1 CLA     -0.055900
      2 CAB        77.3480   61.7478   43.3819 c8         1 CLA     -0.148500
      3 CAC        71.2001   56.6523   42.6687 a2         1 CLA     -0.012600
      4 CAD        74.2681   54.7753   35.3709 ck         1 CLA      0.398800
      5 NA         77.0756   58.0783   37.7516 ns         1 CLA     -0.225500
      6 CBA        80.0798   57.2405   34.0062 a2         1 CLA     -0.135000
      7 CBB        78.3550   61.7568   44.3047 c0         1 CLA     -0.395200
      8 CBC        71.4290   55.1798   42.8898 a3         1 CLA     -0.037700
      9 CBD        75.8366   55.3641   35.1705 a1         1 CLA     -0.053900
     10 NB         76.6753   59.6603   40.3474 nm         1 CLA     -0.295700
     11 OBD        73.6532   54.0407   34.5924 o2         1 CLA     -0.494600
     12 CGA        80.6820   55.8944   33.7352 c4         1 CLA      0.827000
     13 CGD        76.8774   54.2324   35.4032 c4         1 CLA      0.655300
     14 ND         74.5206   56.8902   38.2616 nm         1 CLA     -0.291600
     15 CED        77.2417   52.0380   36.3977 a3         1 CLA      0.005400
     16 CHA        76.0157   56.4943   36.2856 cs         1 CLA     -0.123800
     17 CHB        78.6764   59.6289   38.9340 aa         1 CLA     -0.291900
     18 CHC        75.1155   59.9092   42.3126 aa         1 CLA     -0.090400
     19 CHD        72.5321   56.6212   39.7483 aa         1 CLA     -0.052000
     20 CMA        80.5539   57.3871   37.7854 a3         1 CLA     -0.230700
     21 CMB        79.7470   61.5446   41.1510 a3         1 CLA     -0.180800
     22 CMC        72.9443   58.8884   44.3817 a3         1 CLA     -0.134000
     23 CMD        71.6452   54.6583   37.6277 a3         1 CLA     -0.141100
     24 C1         81.2518   53.9050   34.9625 a2         1 CLA      0.023000
     25 C1A        77.1543   57.2217   36.6520 ac         1 CLA     -0.015100
     26 C1B        77.9628   60.0180   40.1229 cr         1 CLA      0.054700
     27 C1C        74.1378   58.9337   42.0342 cn         1 CLA     -0.005600
     28 C1D        73.2860   56.3469   38.5657 ap         1 CLA     -0.047300
     29 O1A        80.5952   55.2997   32.6785 o2         1 CLA     -0.610800
     30 O1D        77.8633   53.9874   34.7128 o2         1 CLA     -0.558200
     31 C2         81.3034   53.3433   36.3991 c8         1 CLA     -0.325100
     32 C2A        78.5419   57.0675   36.0942 a1         1 CLA      0.098600
     33 C2B        78.4359   60.8906   41.1269 cb         1 CLA      0.088500
     34 C2C        73.0623   58.5042   42.9166 cb         1 CLA      0.053700
     35 C2D        72.8738   55.4580   37.5289 cb         1 CLA      0.058900
     36 O2A        81.0742   55.3439   34.9269 o1         1 CLA     -0.437200
     37 O2D        76.5232   53.3772   36.4651 o1         1 CLA     -0.357600
     38 C3         82.3069   52.6821   36.9928 c5         1 CLA      0.031200
     39 C3A        79.3288   58.0434   37.0106 a1         1 CLA      0.166800
     40 C3B        77.4057   61.0519   42.0590 cb         1 CLA      0.035000
     41 C3C        72.3534   57.4791   42.1823 cb         1 CLA     -0.089900
     42 C3D        73.9123   55.4338   36.6226 cb         1 CLA     -0.035900
     43 C4         82.4052   51.2389   36.8997 a3         1 CLA     -0.053300
     44 C4A        78.2831   58.7268   37.8923 ac         1 CLA      0.001800
     45 C4B        76.2932   60.1984   41.6114 cn         1 CLA     -0.020900
     46 C4C        72.9427   57.4439   40.8496 cr         1 CLA     -0.044400
     47 C4D        74.9321   56.3358   37.1286 c6         1 CLA     -0.046000
     48 C5         83.1387   53.3114   38.0250 a2         1 CLA     -0.070400
     49 C6         83.3193   54.8087   38.0250 a2         1 CLA      0.043900
     50 C7         84.2307   55.3259   39.1671 a2         1 CLA     -0.150000
     51 C8         84.7697   56.7406   39.0549 a1         1 CLA      0.064200
     52 C9         85.8139   56.9650   37.9500 a3         1 CLA     -0.259300
     53 C10        85.3579   57.3168   40.3726 a2         1 CLA     -0.071900
     54 C11        84.2073   57.9273   41.2588 a2         1 CLA      0.014500
     55 C12        84.6184   58.6948   42.5085 a2         1 CLA     -0.112100
     56 C13        85.2038   57.7710   43.6954 a1         1 CLA      0.089200
     57 C14        84.1943   56.7389   44.3025 a3         1 CLA     -0.239100
     58 C15        85.7366   58.7184   44.8936 a2         1 CLA     -0.102200
     59 C16        84.5904   59.5446   45.5885 a2         1 CLA      0.023900
     60 C17        85.2648   60.5331   46.5531 a2         1 CLA     -0.105700
     61 C18        84.3314   61.6360   47.0425 a1         1 CLA      0.206800
     62 C19        83.2860   61.1611   48.0741 a3         1 CLA     -0.280100
     63 C20        84.9014   62.9230   47.6560 a3         1 CLA     -0.280100
     64 NC         74.0613   58.1857   40.8654 nx         1 CLA     -0.309200
     65 MG         75.4759   58.3448   39.2239 mg         1 CLA      0.895000
     66 HMD3       71.6251   53.9266   36.7762 dc         1 CLA      0.064300
     67 HMD2       71.6712   54.0780   38.5620 dc         1 CLA      0.064300
     68 HMD1       70.8305   55.3097   37.5865 dc         1 CLA      0.064300
     69 HMC3       73.9157   59.2992   44.8361 dc         1 CLA      0.052100
     70 HMC2       72.2265   59.6693   44.5333 dc         1 CLA      0.052100
     71 HMC1       72.5834   57.9702   44.8757 dc         1 CLA      0.052100
     72 HMB3       79.7034   62.4756   41.7619 dc         1 CLA      0.063600
     73 HMB2       80.3801   60.8132   41.6180 dc         1 CLA      0.063600
     74 HMB1       80.1593   61.8706   40.1969 dc         1 CLA      0.063600
     75 HMA3       81.0692   58.0222   38.4484 dc         1 CLA      0.058300
     76 HMA2       80.2928   56.5818   38.4119 dc         1 CLA      0.058300
     77 HMA1       81.2589   57.0078   37.0358 dc         1 CLA      0.058300
     78 HED3       76.8125   51.5273   35.5678 dc         1 CLA      0.079300
     79 HED2       78.2781   52.1271   36.1147 dc         1 CLA      0.079300
     80 HED1       77.2065   51.3669   37.2583 dc         1 CLA      0.079300
     81 HBC3       70.5418   54.7389   43.2357 dc         1 CLA      0.016300
     82 HBC2       71.7303   54.7874   41.9122 dc         1 CLA      0.016300
     83 HBC1       72.2487   54.9636   43.5908 dc         1 CLA      0.016300
     84 HBB2       78.1995   62.3020   45.2227 da         1 CLA      0.183000
     85 HBB1       79.3584   61.3290   44.1247 da         1 CLA      0.183000
     86 HBA2       79.9184   57.7906   33.1489 dc         1 CLA      0.029400
     87 HBA1       80.7485   57.8264   34.6503 dc         1 CLA      0.029400
     88 HAC2       70.9294   57.0392   43.6473 dc         1 CLA      0.029300
     89 HAC1       70.2588   56.8555   42.0353 dc         1 CLA      0.029300
     90 HAA2       78.0681   56.7812   33.9349 dc         1 CLA      0.028700
     91 HAA1       78.4479   58.4681   34.4441 dc         1 CLA      0.028700
     92 H203       84.1773   63.6401   47.8313 dc         1 CLA      0.065600
     93 H202       85.2765   62.7422   48.6530 dc         1 CLA      0.065600
     94 H201       85.7002   63.3044   47.0782 dc         1 CLA      0.065600
     95 H193       83.6159   60.9874   49.1213 dc         1 CLA      0.065600
     96 H192       82.4424   61.8626   48.0631 dc         1 CLA      0.065600
     97 H191       82.9946   60.1893   47.7058 dc         1 CLA      0.065600
     98 H172       85.5207   60.0231   47.4968 dc         1 CLA      0.027600
     99 H171       86.0758   61.0682   46.0557 dc         1 CLA      0.027600
    100 H162       83.8521   60.0600   44.8739 dc         1 CLA      0.002900
    101 H161       83.9511   58.9174   46.1660 dc         1 CLA      0.002900
    102 H152       86.2533   58.0249   45.5155 dc         1 CLA      0.029100
    103 H151       86.4629   59.4004   44.4695 dc         1 CLA      0.029100
    104 H143       84.5016   56.1386   45.1684 dc         1 CLA      0.063600
    105 H142       83.2978   57.2634   44.5630 dc         1 CLA      0.063600
    106 H141       83.9622   55.9970   43.5017 dc         1 CLA      0.063600
    107 H122       85.4357   59.4064   42.2460 dc         1 CLA      0.032500
    108 H121       83.7406   59.2418   42.8364 dc         1 CLA      0.032500
    109 H112       83.6775   58.5585   40.5574 dc         1 CLA      0.006600
    110 H111       83.5289   57.0495   41.6321 dc         1 CLA      0.006600
    111 H102       85.9539   56.5962   40.9332 dc         1 CLA      0.024100
    112 H101       86.0893   58.1105   40.1711 dc         1 CLA      0.024100
    113 HHD        71.5684   56.0212   39.8220 da         1 CLA      0.174300
    114 HHC        75.0087   60.2853   43.3585 da         1 CLA      0.136800
    115 HHB        79.7148   59.8288   39.0345 da         1 CLA      0.138300
    116 HBD        75.9217   55.6165   34.0455 dc         1 CLA      0.107700
    117 HAB        76.4447   62.2731   43.6597 da         1 CLA      0.155200
    118 H93        85.5400   56.4469   37.0407 dc         1 CLA      0.069500
    119 H92        85.8969   57.9846   37.5692 dc         1 CLA      0.069500
    120 H91        86.7966   56.5813   38.1427 dc         1 CLA      0.069500
    121 H8         83.9366   57.3458   38.8350 dc         1 CLA      0.029300
    122 H72        83.6302   55.3144   40.0636 dc         1 CLA      0.044400
    123 H71        85.0575   54.5543   39.2897 dc         1 CLA      0.044400
    124 H62        83.8959   55.0230   37.0586 dc         1 CLA      0.015600
    125 H61        82.3489   55.1959   38.0008 dc         1 CLA      0.015600
    126 H52        82.9273   52.9763   39.0347 dc         1 CLA      0.033200
    127 H51        84.1153   52.8100   37.8905 dc         1 CLA      0.033200
    128 H43        81.4858   50.8113   37.4025 dc         1 CLA      0.037000
    129 H42        82.2698   50.8736   35.8602 dc         1 CLA      0.037000
    130 H41        83.3202   50.7503   37.2501 dc         1 CLA      0.037000
    131 H3A        79.7399   58.8537   36.2962 dc         1 CLA      0.041100
    132 H2A        78.9410   56.0486   36.2753 dc         1 CLA      0.083100
    133 H2         80.3304   53.2587   36.8180 da         1 CLA      0.180900
    134 H18        83.6954   61.9450   46.1961 dc         1 CLA     -0.003900
    135 H13        85.9449   57.1225   43.1955 dc         1 CLA      0.019700
    136 H12        80.3681   53.4015   34.7151 dc         1 CLA      0.120400
    137 H11        82.1183   53.6499   34.3014 dc         1 CLA      0.120400
    138 C1         68.1758   60.7117   49.9019 Z1         2 LUT      0.509236
    139 C2         66.7853   60.6317   50.6121 Z2         2 LUT     -0.434695
    140 C3         66.0367   61.9508   50.9186 Z3         2 LUT      0.437453
    141 O3         66.3001   62.3392   52.3320 S1         2 LUT     -0.547129
    142 C4         66.3731   63.0703   50.0490 Z4         2 LUT     -0.468603
    143 C5         66.9551   62.6223   48.7441 Z5         2 LUT      0.279246
    144 C6         67.9153   61.6202   48.6384 Z6         2 LUT     -0.305473
    145 C7         68.2712   61.0645   47.3388 Z7         2 LUT      0.069402
    146 C8         68.8762   61.7591   46.3872 Z8         2 LUT     -0.191631
    147 C9         69.3907   61.3450   45.1125 Z9         2 LUT      0.196698
    148 C10        70.3309   62.1771   44.5764 Y1         2 LUT     -0.208611
    149 C11        71.0444   62.1228   43.2862 Y2         2 LUT      0.030784
    150 C12        72.2391   62.7539   43.1239 Y3         2 LUT     -0.220316
    151 C13        73.1812   62.8052   42.0052 Y4         2 LUT      0.215937
    152 C14        74.3093   63.6102   42.1326 Y5         2 LUT     -0.185793
    153 C15        75.3750   63.7523   41.2406 Y6         2 LUT     -0.057835
    154 C16        68.6321   59.2426   49.7947 Y7         2 LUT     -0.405615
    155 C17        69.2012   61.3024   50.9409 Y7         2 LUT     -0.405615
    156 C18        66.2388   63.2442   47.5516 Y9         2 LUT     -0.369639
    157 C19        68.9667   60.0769   44.3361 W1         2 LUT     -0.333362
    158 C20        72.8017   62.0867   40.7247 W2         2 LUT     -0.323439
    159 C21        87.3768   65.1688   35.6226 Z1         2 LUT      0.406104
    160 C22        88.3164   64.5483   34.5095 Z2         2 LUT     -0.404965
    161 C23        88.3132   65.3651   33.1976 Z3         2 LUT      0.391255
    162 O23        88.7427   64.4923   32.1420 S1         2 LUT     -0.528210
    163 C24        86.9675   66.0208   32.9016 W6         2 LUT     -0.258361
    164 C25        85.8903   66.1057   33.6952 Z5         2 LUT      0.133546
    165 C26        85.8771   65.4752   35.1071 W8         2 LUT     -0.147008
    166 C27        84.9487   66.1122   36.0893 Z7         2 LUT      0.023843
    167 C28        83.7941   65.5903   36.5882 Z8         2 LUT     -0.216987
    168 C29        83.0254   65.9645   37.8885 Z9         2 LUT      0.206524
    169 C30        81.7797   65.4588   38.1061 Y1         2 LUT     -0.215556
    170 C31        80.9256   65.7077   39.2283 Y2         2 LUT      0.025142
    171 C32        79.7429   65.0144   39.4484 Y3         2 LUT     -0.212209
    172 C33        78.8079   65.0925   40.5694 Y4         2 LUT      0.240937
    173 C34        77.6719   64.3382   40.4892 Y5         2 LUT     -0.218862
    174 C35        76.5399   64.4021   41.4247 Y6         2 LUT     -0.023547
    175 C36        88.1398   66.4587   36.0884 Y7         2 LUT     -0.393485
    176 C37        87.4099   64.0827   36.6746 Y7         2 LUT     -0.393485
    177 C38        84.6500   66.8506   33.1540 Y9         2 LUT     -0.387526
    178 C39        83.5830   66.9662   38.8378 W1         2 LUT     -0.322618
    179 C40        79.3170   65.7214   41.8822 W2         2 LUT     -0.358472
    180 H403       80.4281   65.6010   41.8796 R7         2 LUT      0.097720
    181 H402       79.2570   66.8203   41.8337 R7         2 LUT      0.097720
    182 H401       78.9603   65.2341   42.8485 R7         2 LUT      0.097720
    183 H393       84.4553   67.5688   38.5807 R4         2 LUT      0.082505
    184 H392       82.8704   67.6910   39.2805 R4         2 LUT      0.082505
    185 H391       83.9174   66.4258   39.6953 R4         2 LUT      0.082505
    186 H383       84.0542   67.3508   33.9206 R1         2 LUT      0.104030
    187 H382       85.0349   67.6173   32.4822 R1         2 LUT      0.104030
    188 H381       84.0022   66.1083   32.5821 R1         2 LUT      0.104030
    189 H373       88.4801   63.7829   36.9107 T4         2 LUT      0.089537
    190 H372       86.9255   64.5336   37.5580 T4         2 LUT      0.089537
    191 H371       86.7865   63.1859   36.3152 T4         2 LUT      0.089537
    192 H363       89.2179   66.3842   36.1358 T4         2 LUT      0.089537
    193 H362       87.8456   67.2454   35.4143 T4         2 LUT      0.089537
    194 H361       87.6757   66.7233   37.0661 T4         2 LUT      0.089537
    195 H222       89.3399   64.4636   34.8442 U2         2 LUT      0.127376
    196 H221       88.0095   63.5128   34.3496 U2         2 LUT      0.127376
    197 H203       73.0408   62.6686   39.8443 R7         2 LUT      0.087068
    198 H202       73.4386   61.1369   40.5964 R7         2 LUT      0.087068
    199 H201       71.8131   61.8034   40.7227 R7         2 LUT      0.087068
    200 H193       69.6802   59.2556   44.1410 R4         2 LUT      0.089716
    201 H192       67.9976   59.6574   44.6506 R4         2 LUT      0.089716
    202 H191       68.8078   60.3164   43.2806 R4         2 LUT      0.089716
    203 H183       66.5957   64.1670   47.0135 R1         2 LUT      0.094572
    204 H182       66.2584   62.5491   46.7653 R1         2 LUT      0.094572
    205 H181       65.2203   63.4403   47.8623 R1         2 LUT      0.094572
    206 H173       70.1066   61.4347   50.3839 T4         2 LUT      0.093752
    207 H172       68.9247   62.2842   51.3446 T4         2 LUT      0.093752
    208 H171       69.3307   60.7090   51.9086 T4         2 LUT      0.093752
    209 H163       67.8361   58.7547   49.2012 T4         2 LUT      0.093752
    210 H162       69.6045   59.2827   49.1859 T4         2 LUT      0.093752
    211 H161       68.8303   58.6826   50.7592 T4         2 LUT      0.093752
    212 HO3        65.7419   61.9013   53.0307 Q1         2 LUT      0.300121
    213 H8         69.0181   62.8089   46.7108 U7         2 LUT      0.080784
    214 H7         68.1492   60.0107   47.1961 U6         2 LUT      0.042190
    215 H42        65.4667   63.6997   49.9073 U5         2 LUT      0.145166
    216 H41        67.0554   63.7824   50.5921 U5         2 LUT      0.145166
    217 H35        76.6404   65.0013   42.2790 T3         2 LUT      0.077919
    218 H34        77.4850   63.8160   39.5675 T2         2 LUT      0.073626
    219 H32        79.4655   64.2794   38.6799 T1         2 LUT      0.092510
    220 H31        81.2179   66.4599   39.9906 U9         2 LUT      0.070048
    221 H30        81.4683   64.6971   37.3647 U8         2 LUT      0.085442
    222 H3         64.9717   61.8400   50.7700 U3         2 LUT     -0.031596
    223 H28        83.3080   64.8464   35.9359 U7         2 LUT      0.084728
    224 H27        85.3872   66.9266   36.6372 U6         2 LUT      0.087291
    225 H26        85.4881   64.5037   34.7895 Q6         2 LUT      0.075325
    226 H24        86.7216   66.5113   31.9641 Q5         2 LUT      0.094482
    227 H23        89.0502   66.2004   33.5267 U3         2 LUT     -0.024869
    228 H22        66.1581   60.0634   49.9786 U2         2 LUT      0.127376
    229 H21        66.9907   60.0723   51.5049 U2         2 LUT      0.127376
    230 H15        75.1705   63.1295   40.4307 T3         2 LUT      0.093200
    231 H14        74.5256   64.1572   43.0447 T2         2 LUT      0.068865
    232 H12        72.4314   63.1243   44.1513 T1         2 LUT      0.095507
    233 H11        70.6688   61.4571   42.5653 U9         2 LUT      0.068930
    234 H10        70.5533   63.0353   45.1926 U8         2 LUT      0.083911
    235 H1         88.7339   65.0489   31.3171 Q1         2 LUT      0.297311
@<TRIPOS>BOND
    1     6     1 1
    2     7     2 1
    3     8     3 1
    4     9     4 1
    5    11     4 1
    6    12     6 1
    7    13     9 1
    8    16     9 1
    9    25     5 1
   10    25    16 1
   11    26    10 1
   12    26    17 1
   13    27    18 1
   14    28    14 1
   15    28    19 1
   16    29    12 1
   17    30    13 1
   18    31    24 1
   19    32     1 1
   20    32    25 1
   21    33    21 1
   22    33    26 1
   23    34    22 1
   24    34    27 1
   25    35    23 1
   26    35    28 1
   27    36    12 1
   28    36    24 1
   29    37    13 1
   30    37    15 1
   31    38    31 1
   32    39    20 1
   33    39    32 1
   34    40     2 1
   35    40    33 1
   36    41     3 1
   37    41    34 1
   38    42     4 1
   39    42    35 1
   40    43    38 1
   41    44     5 1
   42    44    17 1
   43    44    39 1
   44    45    10 1
   45    45    18 1
   46    45    40 1
   47    46    19 1
   48    46    41 1
   49    47    14 1
   50    47    16 1
   51    47    42 1
   52    48    38 1
   53    49    48 1
   54    50    49 1
   55    51    50 1
   56    52    51 1
   57    53    51 1
   58    54    53 1
   59    55    54 1
   60    56    55 1
   61    57    56 1
   62    58    56 1
   63    59    58 1
   64    60    59 1
   65    61    60 1
   66    62    61 1
   67    63    61 1
   68    64    27 1
   69    64    46 1
   70    65     5 1
   71    65    10 1
   72    65    64 1
   73    65    14 1
   74    66    23 1
   75    67    23 1
   76    68    23 1
   77    69    22 1
   78    70    22 1
   79    71    22 1
   80    72    21 1
   81    73    21 1
   82    74    21 1
   83    75    20 1
   84    76    20 1
   85    77    20 1
   86    78    15 1
   87    79    15 1
   88    80    15 1
   89    81     8 1
   90    82     8 1
   91    83     8 1
   92    84     7 1
   93    85     7 1
   94    86     6 1
   95    87     6 1
   96    88     3 1
   97    89     3 1
   98    90     1 1
   99    91     1 1
  100    92    63 1
  101    93    63 1
  102    94    63 1
  103    95    62 1
  104    96    62 1
  105    97    62 1
  106    98    60 1
  107    99    60 1
  108   100    59 1
  109   101    59 1
  110   102    58 1
  111   103    58 1
  112   104    57 1
  113   105    57 1
  114   106    57 1
  115   107    55 1
  116   108    55 1
  117   109    54 1
  118   110    54 1
  119   111    53 1
  120   112    53 1
  121   113    19 1
  122   114    18 1
  123   115    17 1
  124   116     9 1
  125   117     2 1
  126   118    52 1
  127   119    52 1
  128   120    52 1
  129   121    51 1
  130   122    50 1
  131   123    50 1
  132   124    49 1
  133   125    49 1
  134   126    48 1
  135   127    48 1
  136   128    43 1
  137   129    43 1
  138   130    43 1
  139   131    39 1
  140   132    32 1
  141   133    31 1
  142   134    61 1
  143   135    56 1
  144   136    24 1
  145   137    24 1
  146   139   138 1
  147   140   139 1
  148   141   140 1
  149   142   140 1
  150   143   142 1
  151   144   138 1
  152   144   143 1
  153   145   144 1
  154   146   145 1
  155   147   146 1
  156   148   147 1
  157   149   148 1
  158   150   149 1
  159   151   150 1
  160   152   151 1
  161   153   152 1
  162   154   138 1
  163   155   138 1
  164   156   143 1
  165   157   147 1
  166   158   151 1
  167   160   159 1
  168   161   160 1
  169   162   161 1
  170   163   161 1
  171   164   163 1
  172   165   159 1
  173   165   164 1
  174   166   165 1
  175   167   166 1
  176   168   167 1
  177   169   168 1
  178   170   169 1
  179   171   170 1
  180   172   171 1
  181   173   172 1
  182   174   153 1
  183   174   173 1
  184   175   159 1
  185   176   159 1
  186   177   164 1
  187   178   168 1
  188   179   172 1
  189   180   179 1
  190   181   179 1
  191   182   179 1
  192   183   178 1
  193   184   178 1
  194   185   178 1
  195   186   177 1
  196   187   177 1
  197   188   177 1
  198   189   176 1
  199   190   176 1
  200   191   176 1
  201   192   175 1
  202   193   175 1
  203   194   175 1
  204   195   160 1
  205   196   160 1
  206   197   158 1
  207   198   158 1
  208   199   158 1
  209   200   157 1
  210   201   157 1
  211   202   157 1
  212   203   156 1
  213   204   156 1
  214   205   156 1
  215   206   155 1
  216   207   155 1
  217   208   155 1
  218   209   154 1
  219   210   154 1
  220   211   154 1
  221   212   141 1
  222   213   146 1
  223   214   145 1
  224   215   142 1
  225   216   142 1
  226   217   174 1
  227   218   173 1
  228   219   171 1
  229   220   170 1
  230   221   169 1
  231   222   140 1
  232   223   167 1
  233   224   166 1
  234   225   165 1
  235   226   163 1
  236   227   161 1
  237   228   139 1
  238   229   139 1
  239   230   153 1
  240   231   152 1
  241   232   150 1
  242   233   149 1
  243   234   148 1
  244   235   162 1
  245   65    153 1
  246   65    174 1
@<TRIPOS>SUBSTRUCTURE
      1 CLA               1 ****               0 ****  **** 
      2 LUT             138 ****               0 ****  **** 
