@<TRIPOS>MOLECULE
Cpptraj generated mol2 file.
  235   246     2     0     0
SMALL
USER_CHARGES


@<TRIPOS>ATOM
      1 CAA        79.5875   59.2884   34.1371 a2         1 CLA     -0.055900
      2 CAB        79.1919   61.8318   43.5650 c8         1 CLA     -0.148500
      3 CAC        72.6039   57.3831   42.3159 a2         1 CLA     -0.012600
      4 CAD        75.7210   56.3059   34.7729 ck         1 CLA      0.398800
      5 NA         78.7444   58.9699   37.5667 ns         1 CLA     -0.225500
      6 CBA        80.7958   59.4155   33.2156 a2         1 CLA     -0.135000
      7 CBB        80.2198   62.2453   44.3043 c0         1 CLA     -0.395200
      8 CBC        72.7202   55.8306   42.3899 a3         1 CLA     -0.037700
      9 CBD        77.1424   56.9879   34.5926 a1         1 CLA     -0.053900
     10 NB         78.4582   60.1309   40.2791 nm         1 CLA     -0.295700
     11 OBD        75.1455   55.7511   33.8406 o2         1 CLA     -0.494600
     12 CGA        81.4233   58.1435   32.6626 c4         1 CLA      0.827000
     13 CGD        78.1089   55.9934   34.1126 c4         1 CLA      0.655300
     14 ND         75.9796   57.8780   37.9860 nm         1 CLA     -0.291600
     15 CED        79.4645   54.0808   34.7854 a3         1 CLA      0.005400
     16 CHA        77.4230   57.6648   35.9083 cs         1 CLA     -0.123800
     17 CHB        80.4707   60.2063   38.7604 aa         1 CLA     -0.291900
     18 CHC        76.9223   60.2843   42.1921 aa         1 CLA     -0.090400
     19 CHD        74.1949   57.2730   39.5630 aa         1 CLA     -0.052000
     20 CMA        82.1074   58.6302   36.6953 a3         1 CLA     -0.230700
     21 CMB        81.5304   61.9887   41.0512 a3         1 CLA     -0.180800
     22 CMC        74.4349   59.4691   44.1161 a3         1 CLA     -0.134000
     23 CMD        72.9982   55.6737   36.9200 a3         1 CLA     -0.141100
     24 C1         82.4847   56.0889   33.2072 a2         1 CLA      0.023000
     25 C1A        78.5606   58.4162   36.3072 ac         1 CLA     -0.015100
     26 C1B        79.7615   60.4481   40.0216 cr         1 CLA      0.054700
     27 C1C        75.7636   59.5040   41.8372 cn         1 CLA     -0.005600
     28 C1D        74.7977   57.1661   38.3035 ap         1 CLA     -0.047300
     29 O1A        81.3719   57.8418   31.4686 o2         1 CLA     -0.610800
     30 O1D        78.8069   56.1599   33.1412 o2         1 CLA     -0.558200
     31 C2         83.0688   55.5007   34.4641 c8         1 CLA     -0.325100
     32 C2A        79.8832   58.6515   35.4953 a1         1 CLA      0.098600
     33 C2B        80.2641   61.1818   41.1499 cb         1 CLA      0.088500
     34 C2C        74.6590   58.9957   42.6561 cb         1 CLA      0.053700
     35 C2D        74.3359   56.4127   37.0686 cb         1 CLA      0.058900
     36 O2A        81.9475   57.3635   33.6962 o1         1 CLA     -0.437200
     37 O2D        78.2638   54.8906   34.9633 o1         1 CLA     -0.357600
     38 C3         84.2404   54.7604   34.4829 c5         1 CLA      0.031200
     39 C3A        80.8546   59.4138   36.4175 a1         1 CLA      0.166800
     40 C3B        79.3109   61.0858   42.2363 cb         1 CLA      0.035000
     41 C3C        73.8275   58.1251   41.9271 cb         1 CLA     -0.089900
     42 C3D        75.3572   56.5866   36.1674 cb         1 CLA     -0.035900
     43 C4         84.2638   53.2883   34.0801 a3         1 CLA     -0.053300
     44 C4A        79.9412   59.5100   37.6774 ac         1 CLA      0.001800
     45 C4B        78.2076   60.4159   41.5845 cn         1 CLA     -0.020900
     46 C4C        74.5501   58.0947   40.6653 cr         1 CLA     -0.044400
     47 C4D        76.2764   57.4862   36.7266 c6         1 CLA     -0.046000
     48 C5         85.5548   55.3510   34.7974 a2         1 CLA     -0.070400
     49 C6         85.5271   56.5534   35.7651 a2         1 CLA      0.043900
     50 C7         85.4103   55.9772   37.1821 a2         1 CLA     -0.150000
     51 C8         85.0357   57.0171   38.3003 a1         1 CLA      0.064200
     52 C9         86.3299   57.9663   38.5957 a3         1 CLA     -0.259300
     53 C10        84.7368   56.3263   39.6438 a2         1 CLA     -0.071900
     54 C11        84.0900   57.3011   40.6201 a2         1 CLA      0.014500
     55 C12        83.4300   56.6450   41.7892 a2         1 CLA     -0.112100
     56 C13        82.6764   57.5660   42.7772 a1         1 CLA      0.089200
     57 C14        83.3794   58.9420   43.0831 a3         1 CLA     -0.239100
     58 C15        82.4666   56.7615   44.1163 a2         1 CLA     -0.102200
     59 C16        81.6468   55.4870   44.1882 a2         1 CLA      0.023900
     60 C17        80.1685   55.6008   43.7106 a2         1 CLA     -0.105700
     61 C18        79.3034   56.7186   44.4183 a1         1 CLA      0.206800
     62 C19        77.7876   56.7630   44.0238 a3         1 CLA     -0.280100
     63 C20        79.4190   56.6046   45.9680 a3         1 CLA     -0.280100
     64 NC         75.7251   58.8718   40.6746 nx         1 CLA     -0.309200
     65 MG         77.1749   59.0781   39.1278 mg         1 CLA      0.895000
     66 HMD3       72.1803   56.3568   37.0280 dc         1 CLA      0.064300
     67 HMD2       73.0466   55.2696   36.0262 dc         1 CLA      0.064300
     68 HMD1       72.8694   54.9226   37.6306 dc         1 CLA      0.064300
     69 HMC3       75.3385   59.6199   44.7431 dc         1 CLA      0.052100
     70 HMC2       73.9273   60.4302   44.1442 dc         1 CLA      0.052100
     71 HMC1       73.8449   58.7362   44.6289 dc         1 CLA      0.052100
     72 HMB3       81.4177   62.9597   41.5396 dc         1 CLA      0.063600
     73 HMB2       82.3733   61.4434   41.5880 dc         1 CLA      0.063600
     74 HMB1       81.9002   62.2738   40.0456 dc         1 CLA      0.063600
     75 HMA3       81.9631   57.6995   37.2765 dc         1 CLA      0.058300
     76 HMA2       82.6204   58.4209   35.7546 dc         1 CLA      0.058300
     77 HMA1       82.7759   59.3132   37.2397 dc         1 CLA      0.058300
     78 HED3       79.5438   53.1112   35.3183 dc         1 CLA      0.079300
     79 HED2       79.6411   53.9143   33.7488 dc         1 CLA      0.079300
     80 HED1       80.2477   54.7248   35.1059 dc         1 CLA      0.079300
     81 HBC3       71.9075   55.3218   42.9128 dc         1 CLA      0.016300
     82 HBC2       72.7341   55.4416   41.4224 dc         1 CLA      0.016300
     83 HBC1       73.6669   55.5213   42.8398 dc         1 CLA      0.016300
     84 HBB2       79.9607   62.8373   45.1996 da         1 CLA      0.183000
     85 HBB1       81.3392   62.2338   43.9891 da         1 CLA      0.183000
     86 HBA2       80.5171   60.0543   32.4102 dc         1 CLA      0.029400
     87 HBA1       81.5242   59.9964   33.7880 dc         1 CLA      0.029400
     88 HAC2       72.1611   57.6505   43.3062 dc         1 CLA      0.029300
     89 HAC1       71.8920   57.6240   41.5716 dc         1 CLA      0.029300
     90 HAA2       78.9345   58.5660   33.6698 dc         1 CLA      0.028700
     91 HAA1       79.1942   60.2958   34.2643 dc         1 CLA      0.028700
     92 H203       79.0482   55.6322   46.2712 dc         1 CLA      0.065600
     93 H202       80.4032   56.8834   46.4138 dc         1 CLA      0.065600
     94 H201       78.7430   57.3331   46.4772 dc         1 CLA      0.065600
     95 H193       77.3217   57.6920   44.3569 dc         1 CLA      0.065600
     96 H192       77.5799   56.8270   42.9848 dc         1 CLA      0.065600
     97 H191       77.1635   55.9290   44.4774 dc         1 CLA      0.065600
     98 H172       80.2446   55.8081   42.6336 dc         1 CLA      0.027600
     99 H171       79.7362   54.6413   43.8314 dc         1 CLA      0.027600
    100 H162       82.2433   54.8439   43.5608 dc         1 CLA      0.002900
    101 H161       81.6007   55.1400   45.1953 dc         1 CLA      0.002900
    102 H152       83.4284   56.4500   44.5153 dc         1 CLA      0.029100
    103 H151       82.0552   57.4632   44.8845 dc         1 CLA      0.029100
    104 H143       82.8654   59.4518   43.8710 dc         1 CLA      0.063600
    105 H142       84.4523   58.7823   43.2147 dc         1 CLA      0.063600
    106 H141       83.4136   59.5980   42.1211 dc         1 CLA      0.063600
    107 H122       82.6995   56.0793   41.2554 dc         1 CLA      0.032500
    108 H121       84.0645   55.9535   42.3221 dc         1 CLA      0.032500
    109 H112       84.7882   58.0435   40.9835 dc         1 CLA      0.006600
    110 H111       83.2995   57.7986   40.0405 dc         1 CLA      0.006600
    111 H102       84.0700   55.5084   39.5404 dc         1 CLA      0.024100
    112 H101       85.6036   55.9347   40.0757 dc         1 CLA      0.024100
    113 HHD        73.3375   56.6458   39.7159 da         1 CLA      0.174300
    114 HHC        77.0694   60.5465   43.2453 da         1 CLA      0.136800
    115 HHB        81.4967   60.6283   38.6738 da         1 CLA      0.138300
    116 HBD        76.9491   57.6634   33.8305 dc         1 CLA      0.107700
    117 HAB        78.1882   62.0491   43.9742 da         1 CLA      0.155200
    118 H93        85.9947   58.6949   39.3965 dc         1 CLA      0.069500
    119 H92        87.2398   57.4075   38.9358 dc         1 CLA      0.069500
    120 H91        86.6214   58.4627   37.6404 dc         1 CLA      0.069500
    121 H8         84.2479   57.6874   37.9759 dc         1 CLA      0.029300
    122 H72        84.5778   55.3330   37.0667 dc         1 CLA      0.044400
    123 H71        86.2786   55.3202   37.5252 dc         1 CLA      0.044400
    124 H62        86.4744   57.1221   35.7206 dc         1 CLA      0.015600
    125 H61        84.7144   57.2129   35.5074 dc         1 CLA      0.015600
    126 H52        86.3366   54.6714   35.1372 dc         1 CLA      0.033200
    127 H51        86.0259   55.7397   33.8664 dc         1 CLA      0.033200
    128 H43        85.0044   52.6449   34.5332 dc         1 CLA      0.037000
    129 H42        83.2814   52.7404   34.1359 dc         1 CLA      0.037000
    130 H41        84.4749   53.3252   32.9803 dc         1 CLA      0.037000
    131 H3A        81.0045   60.4150   35.9731 dc         1 CLA      0.041100
    132 H2A        80.2393   57.6777   35.2223 dc         1 CLA      0.083100
    133 H2         82.5727   55.6409   35.3973 da         1 CLA      0.180900
    134 H18        79.6767   57.7421   44.2450 dc         1 CLA     -0.003900
    135 H13        81.7011   57.9107   42.3277 dc         1 CLA      0.019700
    136 H12        81.6620   55.5254   32.8066 dc         1 CLA      0.120400
    137 H11        83.2594   56.2620   32.4318 dc         1 CLA      0.120400
    138 C1         69.3431   61.4397   50.5950 Z1         2 LUT      0.509236
    139 C2         68.0042   61.5429   51.2046 Z2         2 LUT     -0.434695
    140 C3         67.4550   62.9192   51.6399 Z3         2 LUT      0.437453
    141 O3         67.8361   63.1598   53.0361 S1         2 LUT     -0.547129
    142 C4         67.9213   64.0123   50.7530 Z4         2 LUT     -0.468603
    143 C5         68.5435   63.6755   49.4655 Z5         2 LUT      0.279246
    144 C6         69.4156   62.6042   49.4515 Z6         2 LUT     -0.305473
    145 C7         69.8910   62.0500   48.1698 Z7         2 LUT      0.069402
    146 C8         70.7608   62.7141   47.3176 Z8         2 LUT     -0.191631
    147 C9         71.3521   62.2735   45.9932 Z9         2 LUT      0.196698
    148 C10        72.4087   63.0337   45.5298 Y1         2 LUT     -0.208611
    149 C11        73.2789   62.8172   44.3900 Y2         2 LUT      0.030784
    150 C12        74.5116   63.4152   44.3512 Y3         2 LUT     -0.220316
    151 C13        75.5170   63.4855   43.1821 Y4         2 LUT      0.215937
    152 C14        76.6412   64.3243   43.2211 Y5         2 LUT     -0.185793
    153 C15        77.7026   64.5882   42.2676 Y6         2 LUT     -0.057835
    154 C16        69.6998   59.9663   50.1781 Y7         2 LUT     -0.405615
    155 C17        70.2543   61.8365   51.8162 Y7         2 LUT     -0.405615
    156 C18        68.0367   64.4870   48.2322 Y9         2 LUT     -0.369639
    157 C19        70.6986   61.1046   45.2594 W1         2 LUT     -0.333362
    158 C20        75.1341   62.9808   41.8195 W2         2 LUT     -0.323439
    159 C21        88.3118   65.8500   35.0461 Z1         2 LUT      0.406104
    160 C22        88.7446   65.4385   33.6160 Z2         2 LUT     -0.404965
    161 C23        88.7210   66.5631   32.6501 Z3         2 LUT      0.391255
    162 O23        89.3769   66.0403   31.4848 S1         2 LUT     -0.528210
    163 C24        87.3639   67.1199   32.5584 W6         2 LUT     -0.258361
    164 C25        86.3560   66.9810   33.4775 Z5         2 LUT      0.133546
    165 C26        86.6938   66.2326   34.7990 W8         2 LUT     -0.147008
    166 C27        86.0253   66.8917   36.0393 Z7         2 LUT      0.023843
    167 C28        84.8970   66.4885   36.6349 Z8         2 LUT     -0.216987
    168 C29        84.4839   66.8853   38.0138 Z9         2 LUT      0.206524
    169 C30        83.3749   66.3495   38.5916 Y1         2 LUT     -0.215556
    170 C31        82.8654   66.3803   39.8905 Y2         2 LUT      0.025142
    171 C32        81.6116   65.8916   40.1156 Y3         2 LUT     -0.212209
    172 C33        80.8805   65.9984   41.3018 Y4         2 LUT      0.240937
    173 C34        79.7992   65.1403   41.4769 Y5         2 LUT     -0.218862
    174 C35        78.9178   65.1762   42.5772 Y6         2 LUT     -0.023547
    175 C36        89.2943   66.8170   35.7109 Y7         2 LUT     -0.393485
    176 C37        88.4878   64.6299   35.9808 Y7         2 LUT     -0.393485
    177 C38        85.0546   67.7123   33.3705 Y9         2 LUT     -0.387526
    178 C39        85.2782   67.8920   38.7359 W1         2 LUT     -0.322618
    179 C40        81.3922   66.9182   42.3900 W2         2 LUT     -0.358472
    180 H403       82.1749   66.4101   42.8658 R7         2 LUT      0.097720
    181 H402       81.6904   67.8619   41.9499 R7         2 LUT      0.097720
    182 H401       80.6945   67.2998   43.1531 R7         2 LUT      0.097720
    183 H393       86.3088   67.5533   38.9507 R4         2 LUT      0.082505
    184 H392       85.3046   68.8294   38.3032 R4         2 LUT      0.082505
    185 H391       84.9815   68.0399   39.8092 R4         2 LUT      0.082505
    186 H383       84.2127   66.9584   33.4192 R1         2 LUT      0.104030
    187 H382       84.8091   68.4070   34.1593 R1         2 LUT      0.104030
    188 H381       84.9667   68.2688   32.4111 R1         2 LUT      0.104030
    189 H373       87.7994   63.8199   35.6762 T4         2 LUT      0.089537
    190 H372       89.4506   64.2221   36.1801 T4         2 LUT      0.089537
    191 H371       88.1251   64.9723   37.0056 T4         2 LUT      0.089537
    192 H363       89.2140   67.7860   35.1326 T4         2 LUT      0.089537
    193 H362       88.9481   67.1252   36.7076 T4         2 LUT      0.089537
    194 H361       90.3340   66.5155   35.6637 T4         2 LUT      0.089537
    195 H222       89.7803   65.0947   33.7761 U2         2 LUT      0.127376
    196 H221       88.0429   64.6896   33.3473 U2         2 LUT      0.127376
    197 H203       74.4659   62.0572   41.8887 R7         2 LUT      0.087068
    198 H202       74.5771   63.5630   41.1560 R7         2 LUT      0.087068
    199 H201       75.9617   62.5280   41.2682 R7         2 LUT      0.087068
    200 H193       70.4830   61.5411   44.3096 R4         2 LUT      0.089716
    201 H192       71.3112   60.2823   45.0758 R4         2 LUT      0.089716
    202 H191       69.7871   60.6829   45.7495 R4         2 LUT      0.089716
    203 H183       66.9309   64.6942   48.3097 R1         2 LUT      0.094572
    204 H182       68.5455   65.4476   48.3359 R1         2 LUT      0.094572
    205 H181       68.1796   63.9635   47.2838 R1         2 LUT      0.094572
    206 H173       70.3223   62.9482   51.8550 T4         2 LUT      0.093752
    207 H172       70.0132   61.5596   52.8375 T4         2 LUT      0.093752
    208 H171       71.3264   61.6166   51.6856 T4         2 LUT      0.093752
    209 H163       68.9699   59.6845   49.4843 T4         2 LUT      0.093752
    210 H162       70.7247   59.8880   49.8490 T4         2 LUT      0.093752
    211 H161       69.5881   59.1764   50.9142 T4         2 LUT      0.093752
    212 HO3        67.1810   62.9386   53.6916 Q1         2 LUT      0.300121
    213 H8         71.0438   63.7505   47.6950 U7         2 LUT      0.080784
    214 H7         69.5415   61.0768   47.8567 U6         2 LUT      0.042190
    215 H42        67.1035   64.7338   50.6693 U5         2 LUT      0.145166
    216 H41        68.7986   64.4901   51.2047 U5         2 LUT      0.145166
    217 H35        79.2128   65.5747   43.5761 T3         2 LUT      0.077919
    218 H34        79.5978   64.4440   40.6674 T2         2 LUT      0.073626
    219 H32        81.1464   65.2968   39.3393 T1         2 LUT      0.092510
    220 H31        83.4637   66.9254   40.6559 U9         2 LUT      0.070048
    221 H30        82.8857   65.5659   37.9621 U8         2 LUT      0.085442
    222 H3         66.3828   62.9720   51.5290 U3         2 LUT     -0.031596
    223 H28        84.1345   65.8980   36.0805 U7         2 LUT      0.084728
    224 H27        86.7347   67.5438   36.5841 U6         2 LUT      0.087291
    225 H26        86.1082   65.2949   34.8529 Q6         2 LUT      0.075325
    226 H24        87.0571   67.6125   31.6409 Q5         2 LUT      0.094482
    227 H23        89.4103   67.3217   32.9354 U3         2 LUT     -0.024869
    228 H22        67.2285   61.3305   50.4058 U2         2 LUT      0.127376
    229 H21        67.8844   60.8185   52.0788 U2         2 LUT      0.127376
    230 H15        77.6696   64.0719   41.2750 T3         2 LUT      0.093200
    231 H14        76.7879   64.8778   44.1276 T2         2 LUT      0.068865
    232 H12        74.7824   64.0349   45.2156 T1         2 LUT      0.095507
    233 H11        72.7928   62.2971   43.5153 U9         2 LUT      0.068930
    234 H10        72.7121   63.9201   46.0661 U8         2 LUT      0.083911
    235 H1         88.8175   65.7883   30.7476 Q1         2 LUT      0.297311
@<TRIPOS>BOND
    1     6     1 1
    2     7     2 1
    3     8     3 1
    4     9     4 1
    5    11     4 1
    6    12     6 1
    7    13     9 1
    8    16     9 1
    9    25     5 1
   10    25    16 1
   11    26    10 1
   12    26    17 1
   13    27    18 1
   14    28    14 1
   15    28    19 1
   16    29    12 1
   17    30    13 1
   18    31    24 1
   19    32     1 1
   20    32    25 1
   21    33    21 1
   22    33    26 1
   23    34    22 1
   24    34    27 1
   25    35    23 1
   26    35    28 1
   27    36    12 1
   28    36    24 1
   29    37    13 1
   30    37    15 1
   31    38    31 1
   32    39    20 1
   33    39    32 1
   34    40     2 1
   35    40    33 1
   36    41     3 1
   37    41    34 1
   38    42     4 1
   39    42    35 1
   40    43    38 1
   41    44     5 1
   42    44    17 1
   43    44    39 1
   44    45    10 1
   45    45    18 1
   46    45    40 1
   47    46    19 1
   48    46    41 1
   49    47    14 1
   50    47    16 1
   51    47    42 1
   52    48    38 1
   53    49    48 1
   54    50    49 1
   55    51    50 1
   56    52    51 1
   57    53    51 1
   58    54    53 1
   59    55    54 1
   60    56    55 1
   61    57    56 1
   62    58    56 1
   63    59    58 1
   64    60    59 1
   65    61    60 1
   66    62    61 1
   67    63    61 1
   68    64    27 1
   69    64    46 1
   70    65     5 1
   71    65    10 1
   72    65    64 1
   73    65    14 1
   74    66    23 1
   75    67    23 1
   76    68    23 1
   77    69    22 1
   78    70    22 1
   79    71    22 1
   80    72    21 1
   81    73    21 1
   82    74    21 1
   83    75    20 1
   84    76    20 1
   85    77    20 1
   86    78    15 1
   87    79    15 1
   88    80    15 1
   89    81     8 1
   90    82     8 1
   91    83     8 1
   92    84     7 1
   93    85     7 1
   94    86     6 1
   95    87     6 1
   96    88     3 1
   97    89     3 1
   98    90     1 1
   99    91     1 1
  100    92    63 1
  101    93    63 1
  102    94    63 1
  103    95    62 1
  104    96    62 1
  105    97    62 1
  106    98    60 1
  107    99    60 1
  108   100    59 1
  109   101    59 1
  110   102    58 1
  111   103    58 1
  112   104    57 1
  113   105    57 1
  114   106    57 1
  115   107    55 1
  116   108    55 1
  117   109    54 1
  118   110    54 1
  119   111    53 1
  120   112    53 1
  121   113    19 1
  122   114    18 1
  123   115    17 1
  124   116     9 1
  125   117     2 1
  126   118    52 1
  127   119    52 1
  128   120    52 1
  129   121    51 1
  130   122    50 1
  131   123    50 1
  132   124    49 1
  133   125    49 1
  134   126    48 1
  135   127    48 1
  136   128    43 1
  137   129    43 1
  138   130    43 1
  139   131    39 1
  140   132    32 1
  141   133    31 1
  142   134    61 1
  143   135    56 1
  144   136    24 1
  145   137    24 1
  146   139   138 1
  147   140   139 1
  148   141   140 1
  149   142   140 1
  150   143   142 1
  151   144   138 1
  152   144   143 1
  153   145   144 1
  154   146   145 1
  155   147   146 1
  156   148   147 1
  157   149   148 1
  158   150   149 1
  159   151   150 1
  160   152   151 1
  161   153   152 1
  162   154   138 1
  163   155   138 1
  164   156   143 1
  165   157   147 1
  166   158   151 1
  167   160   159 1
  168   161   160 1
  169   162   161 1
  170   163   161 1
  171   164   163 1
  172   165   159 1
  173   165   164 1
  174   166   165 1
  175   167   166 1
  176   168   167 1
  177   169   168 1
  178   170   169 1
  179   171   170 1
  180   172   171 1
  181   173   172 1
  182   174   153 1
  183   174   173 1
  184   175   159 1
  185   176   159 1
  186   177   164 1
  187   178   168 1
  188   179   172 1
  189   180   179 1
  190   181   179 1
  191   182   179 1
  192   183   178 1
  193   184   178 1
  194   185   178 1
  195   186   177 1
  196   187   177 1
  197   188   177 1
  198   189   176 1
  199   190   176 1
  200   191   176 1
  201   192   175 1
  202   193   175 1
  203   194   175 1
  204   195   160 1
  205   196   160 1
  206   197   158 1
  207   198   158 1
  208   199   158 1
  209   200   157 1
  210   201   157 1
  211   202   157 1
  212   203   156 1
  213   204   156 1
  214   205   156 1
  215   206   155 1
  216   207   155 1
  217   208   155 1
  218   209   154 1
  219   210   154 1
  220   211   154 1
  221   212   141 1
  222   213   146 1
  223   214   145 1
  224   215   142 1
  225   216   142 1
  226   217   174 1
  227   218   173 1
  228   219   171 1
  229   220   170 1
  230   221   169 1
  231   222   140 1
  232   223   167 1
  233   224   166 1
  234   225   165 1
  235   226   163 1
  236   227   161 1
  237   228   139 1
  238   229   139 1
  239   230   153 1
  240   231   152 1
  241   232   150 1
  242   233   149 1
  243   234   148 1
  244   235   162 1
  245   65    153 1
  246   65    174 1
@<TRIPOS>SUBSTRUCTURE
      1 CLA               1 ****               0 ****  **** 
      2 LUT             138 ****               0 ****  **** 
