@<TRIPOS>MOLECULE
Cpptraj generated mol2 file.
  235   246     2     0     0
SMALL
USER_CHARGES


@<TRIPOS>ATOM
      1 CAA        80.1620   57.9419   34.3300 a2         1 CLA     -0.055900
      2 CAB        80.4273   61.9248   43.3073 c8         1 CLA     -0.148500
      3 CAC        73.2327   58.3460   42.8293 a2         1 CLA     -0.012600
      4 CAD        75.8620   55.5256   35.7943 ck         1 CLA      0.398800
      5 NA         79.2311   58.4841   37.7516 ns         1 CLA     -0.225500
      6 CBA        81.3790   57.6517   33.4421 a2         1 CLA     -0.135000
      7 CBB        81.5910   62.1934   43.8793 c0         1 CLA     -0.395200
      8 CBC        73.1163   56.7563   42.8332 a3         1 CLA     -0.037700
      9 CBD        77.3529   55.9960   35.3925 a1         1 CLA     -0.053900
     10 NB         79.1893   59.8915   40.4210 nm         1 CLA     -0.295700
     11 OBD        75.2231   54.7377   35.2069 o2         1 CLA     -0.494600
     12 CGA        81.6866   56.2180   33.0692 c4         1 CLA      0.827000
     13 CGD        78.2547   54.7987   35.3100 c4         1 CLA      0.655300
     14 ND         76.3301   57.8618   38.4203 nm         1 CLA     -0.291600
     15 CED        78.6291   52.4981   36.0880 a3         1 CLA      0.005400
     16 CHA        77.7882   56.9684   36.4949 cs         1 CLA     -0.123800
     17 CHB        81.0652   59.6166   38.8889 aa         1 CLA     -0.291900
     18 CHC        77.7960   60.4514   42.3962 aa         1 CLA     -0.090400
     19 CHD        74.4292   57.9688   39.9450 aa         1 CLA     -0.052000
     20 CMA        82.5832   57.4449   37.0651 a3         1 CLA     -0.230700
     21 CMB        82.5278   61.5600   40.7592 a3         1 CLA     -0.180800
     22 CMC        75.5500   60.0682   44.4355 a3         1 CLA     -0.134000
     23 CMD        73.0812   55.9573   37.8255 a3         1 CLA     -0.141100
     24 C1         82.4170   54.0561   33.8606 a2         1 CLA      0.023000
     25 C1A        79.0446   57.5842   36.6702 ac         1 CLA     -0.015100
     26 C1B        80.4793   60.1225   40.0405 cr         1 CLA      0.054700
     27 C1C        76.6244   59.7211   42.0756 cn         1 CLA     -0.005600
     28 C1D        75.0269   57.4118   38.8142 ap         1 CLA     -0.047300
     29 O1A        81.3025   55.6955   32.0088 o2         1 CLA     -0.610800
     30 O1D        79.0640   54.5760   34.4470 o2         1 CLA     -0.558200
     31 C2         83.1865   53.4230   35.0115 c8         1 CLA     -0.325100
     32 C2A        80.3201   57.4092   35.8506 a1         1 CLA      0.098600
     33 C2B        81.0968   60.9845   40.9755 cb         1 CLA      0.088500
     34 C2C        75.4893   59.5546   43.0386 cb         1 CLA      0.053700
     35 C2D        74.4754   56.5271   37.8424 cb         1 CLA      0.058900
     36 O2A        82.4004   55.5605   33.9884 o1         1 CLA     -0.437200
     37 O2D        78.0336   53.8905   36.2960 o1         1 CLA     -0.357600
     38 C3         84.4574   53.0346   35.1016 c5         1 CLA      0.031200
     39 C3A        81.3591   58.2563   36.6776 a1         1 CLA      0.166800
     40 C3B        80.2238   61.1716   42.0405 cb         1 CLA      0.035000
     41 C3C        74.5706   58.8286   42.2723 cb         1 CLA     -0.089900
     42 C3D        75.5145   56.2906   36.9971 cb         1 CLA     -0.035900
     43 C4         84.9564   51.6303   34.7346 a3         1 CLA     -0.053300
     44 C4A        80.5290   58.7856   37.8678 ac         1 CLA      0.001800
     45 C4B        78.9779   60.5198   41.6641 cn         1 CLA     -0.020900
     46 C4C        75.1333   58.6299   40.9812 cr         1 CLA     -0.044400
     47 C4D        76.6138   57.1136   37.3874 c6         1 CLA     -0.046000
     48 C5         85.4646   54.0994   35.3861 a2         1 CLA     -0.070400
     49 C6         85.4995   54.6584   36.8090 a2         1 CLA      0.043900
     50 C7         86.9085   55.2832   36.9823 a2         1 CLA     -0.150000
     51 C8         87.2115   55.8406   38.4300 a1         1 CLA      0.064200
     52 C9         86.4722   57.1451   38.7344 a3         1 CLA     -0.259300
     53 C10        88.7251   56.1184   38.5619 a2         1 CLA     -0.071900
     54 C11        89.2261   56.5761   39.9328 a2         1 CLA      0.014500
     55 C12        89.0241   55.6334   41.1124 a2         1 CLA     -0.112100
     56 C13        89.7173   55.9779   42.4684 a1         1 CLA      0.089200
     57 C14        89.5514   54.7567   43.4400 a3         1 CLA     -0.239100
     58 C15        89.2546   57.2910   43.1433 a2         1 CLA     -0.102200
     59 C16        87.7135   57.5448   43.1315 a2         1 CLA      0.023900
     60 C17        87.3026   58.7997   43.8910 a2         1 CLA     -0.105700
     61 C18        85.7847   58.7099   44.2294 a1         1 CLA      0.206800
     62 C19        85.4921   57.8084   45.4527 a3         1 CLA     -0.280100
     63 C20        85.1914   60.1381   44.4755 a3         1 CLA     -0.280100
     64 NC         76.3715   59.1585   40.8602 nx         1 CLA     -0.309200
     65 MG         77.7343   58.9636   39.3288 mg         1 CLA      0.895000
     66 HMD3       72.6549   55.7000   38.7496 dc         1 CLA      0.064300
     67 HMD2       72.4832   56.6994   37.4226 dc         1 CLA      0.064300
     68 HMD1       73.0352   55.0691   37.2751 dc         1 CLA      0.064300
     69 HMC3       74.7127   59.5867   44.9693 dc         1 CLA      0.052100
     70 HMC2       76.4819   59.7234   44.9370 dc         1 CLA      0.052100
     71 HMC1       75.5216   61.1111   44.5872 dc         1 CLA      0.052100
     72 HMB3       82.5750   62.4335   41.3335 dc         1 CLA      0.063600
     73 HMB2       83.1715   60.7946   41.1469 dc         1 CLA      0.063600
     74 HMB1       82.5765   61.8860   39.7031 dc         1 CLA      0.063600
     75 HMA3       82.3475   56.5451   37.6886 dc         1 CLA      0.058300
     76 HMA2       83.1828   57.1496   36.2350 dc         1 CLA      0.058300
     77 HMA1       83.2241   58.0488   37.7210 dc         1 CLA      0.058300
     78 HED3       78.6866   52.2671   35.0567 dc         1 CLA      0.079300
     79 HED2       79.6083   52.4030   36.4414 dc         1 CLA      0.079300
     80 HED1       78.0704   51.6988   36.4457 dc         1 CLA      0.079300
     81 HBC3       72.5777   56.4252   43.7629 dc         1 CLA      0.016300
     82 HBC2       72.5436   56.4174   41.9820 dc         1 CLA      0.016300
     83 HBC1       74.0746   56.3353   42.8396 dc         1 CLA      0.016300
     84 HBB2       81.7602   62.9071   44.7778 da         1 CLA      0.183000
     85 HBB1       82.5441   61.7571   43.4537 da         1 CLA      0.183000
     86 HBA2       81.1469   58.1507   32.4747 dc         1 CLA      0.029400
     87 HBA1       82.2810   58.0842   33.8617 dc         1 CLA      0.029400
     88 HAC2       73.0880   58.7068   43.8610 dc         1 CLA      0.029300
     89 HAC1       72.4253   58.7900   42.2097 dc         1 CLA      0.029300
     90 HAA2       79.2919   57.6055   33.8385 dc         1 CLA      0.028700
     91 HAA1       79.9636   58.9843   34.2783 dc         1 CLA      0.028700
     92 H203       85.4190   60.6024   45.3736 dc         1 CLA      0.065600
     93 H202       85.4927   60.8006   43.6474 dc         1 CLA      0.065600
     94 H201       84.1021   59.9917   44.4060 dc         1 CLA      0.065600
     95 H193       85.8883   56.8280   45.2920 dc         1 CLA      0.065600
     96 H192       85.9795   58.3216   46.2961 dc         1 CLA      0.065600
     97 H191       84.4545   57.7269   45.6575 dc         1 CLA      0.065600
     98 H172       87.8990   58.8843   44.8703 dc         1 CLA      0.027600
     99 H171       87.5190   59.7363   43.2451 dc         1 CLA      0.027600
    100 H162       87.5378   57.6824   42.0853 dc         1 CLA      0.002900
    101 H161       87.2213   56.5703   43.5296 dc         1 CLA      0.002900
    102 H152       89.5838   57.2021   44.2017 dc         1 CLA      0.029100
    103 H151       89.7743   58.1996   42.7759 dc         1 CLA      0.029100
    104 H143       90.0088   53.9037   42.9290 dc         1 CLA      0.063600
    105 H142       90.0519   54.9307   44.4690 dc         1 CLA      0.063600
    106 H141       88.4717   54.5959   43.6261 dc         1 CLA      0.063600
    107 H122       87.9471   55.5829   41.2069 dc         1 CLA      0.032500
    108 H121       89.3452   54.6441   40.7572 dc         1 CLA      0.032500
    109 H112       90.2698   56.6907   39.8414 dc         1 CLA      0.006600
    110 H111       88.8200   57.5901   40.1868 dc         1 CLA      0.006600
    111 H102       89.2267   55.1199   38.3564 dc         1 CLA      0.024100
    112 H101       89.0510   56.6816   37.7160 dc         1 CLA      0.024100
    113 HHD        73.3472   57.6127   40.0960 da         1 CLA      0.174300
    114 HHC        77.9392   60.9408   43.3572 da         1 CLA      0.136800
    115 HHB        82.2198   59.6818   39.0224 da         1 CLA      0.138300
    116 HBD        77.2508   56.4698   34.4253 dc         1 CLA      0.107700
    117 HAB        79.6039   62.3800   43.7879 da         1 CLA      0.155200
    118 H93        86.8068   57.9245   38.0033 dc         1 CLA      0.069500
    119 H92        85.4242   56.9477   38.5791 dc         1 CLA      0.069500
    120 H91        86.5876   57.4160   39.8162 dc         1 CLA      0.069500
    121 H8         87.0559   55.0447   39.2351 dc         1 CLA      0.029300
    122 H72        87.6687   54.5427   36.8394 dc         1 CLA      0.044400
    123 H71        87.1153   56.1330   36.3648 dc         1 CLA      0.044400
    124 H62        84.6644   55.2974   36.9597 dc         1 CLA      0.015600
    125 H61        85.5154   53.8449   37.5644 dc         1 CLA      0.015600
    126 H52        86.4803   53.6617   35.1755 dc         1 CLA      0.033200
    127 H51        85.2876   54.9155   34.7358 dc         1 CLA      0.033200
    128 H43        85.5037   51.6639   33.7907 dc         1 CLA      0.037000
    129 H42        85.5934   51.2059   35.4318 dc         1 CLA      0.037000
    130 H41        84.0982   50.9328   34.5856 dc         1 CLA      0.037000
    131 H3A        81.6226   59.1895   36.1696 dc         1 CLA      0.041100
    132 H2A        80.6443   56.3946   35.9835 dc         1 CLA      0.083100
    133 H2         82.5935   53.3004   36.0001 da         1 CLA      0.180900
    134 H18        85.2831   58.2481   43.3591 dc         1 CLA     -0.003900
    135 H13        90.7775   56.0857   42.3102 dc         1 CLA      0.019700
    136 H12        81.4852   53.5407   33.7066 dc         1 CLA      0.120400
    137 H11        82.9539   53.8747   32.9347 dc         1 CLA      0.120400
    138 C1         69.6375   61.6872   50.0484 Z1         2 LUT      0.509236
    139 C2         68.1806   61.6662   50.6992 Z2         2 LUT     -0.434695
    140 C3         67.5372   62.9919   50.9137 Z3         2 LUT      0.437453
    141 O3         67.2900   63.1576   52.2787 S1         2 LUT     -0.547129
    142 C4         68.1218   64.1656   50.2174 Z4         2 LUT     -0.468603
    143 C5         68.8099   63.7423   48.9257 Z5         2 LUT      0.279246
    144 C6         69.5627   62.6420   48.8383 Z6         2 LUT     -0.305473
    145 C7         69.8146   62.0833   47.5358 Z7         2 LUT      0.069402
    146 C8         70.9943   62.5077   46.9946 Z8         2 LUT     -0.191631
    147 C9         71.5994   62.1727   45.7570 Z9         2 LUT      0.196698
    148 C10        72.6663   62.8743   45.2918 Y1         2 LUT     -0.208611
    149 C11        73.4994   62.7498   44.0876 Y2         2 LUT      0.030784
    150 C12        74.6275   63.5149   43.8774 Y3         2 LUT     -0.220316
    151 C13        75.5498   63.4522   42.7143 Y4         2 LUT      0.215937
    152 C14        76.7574   64.1175   42.7001 Y5         2 LUT     -0.185793
    153 C15        77.8170   64.0609   41.7483 Y6         2 LUT     -0.057835
    154 C16        69.9704   60.2595   49.7353 Y7         2 LUT     -0.405615
    155 C17        70.6018   62.3231   51.1437 Y7         2 LUT     -0.405615
    156 C18        68.2361   64.4999   47.7582 Y9         2 LUT     -0.369639
    157 C19        71.0332   61.0270   44.9305 W1         2 LUT     -0.333362
    158 C20        74.9628   62.6766   41.4818 W2         2 LUT     -0.323439
    159 C21        88.8930   65.3929   35.4087 Z1         2 LUT      0.406104
    160 C22        89.5185   64.5637   34.2753 Z2         2 LUT     -0.404965
    161 C23        89.8137   65.5007   33.0655 Z3         2 LUT      0.391255
    162 O23        90.5321   64.8337   32.0572 S1         2 LUT     -0.528210
    163 C24        88.5491   66.2430   32.6464 W6         2 LUT     -0.258361
    164 C25        87.4400   66.4197   33.4319 Z5         2 LUT      0.133546
    165 C26        87.4327   65.9224   34.8424 W8         2 LUT     -0.147008
    166 C27        86.6125   66.6586   35.8749 Z7         2 LUT      0.023843
    167 C28        85.5711   66.1721   36.5666 Z8         2 LUT     -0.216987
    168 C29        84.9145   66.6896   37.7880 Z9         2 LUT      0.206524
    169 C30        83.9648   65.9137   38.3756 Y1         2 LUT     -0.215556
    170 C31        83.2030   66.1898   39.5708 Y2         2 LUT      0.025142
    171 C32        82.1476   65.4448   39.8858 Y3         2 LUT     -0.212209
    172 C33        81.2208   65.5896   40.9767 Y4         2 LUT      0.240937
    173 C34        80.0682   64.8407   40.8891 Y5         2 LUT     -0.218862
    174 C35        78.9459   64.8306   41.8328 Y6         2 LUT     -0.023547
    175 C36        89.9365   66.4650   36.0060 Y7         2 LUT     -0.393485
    176 C37        88.7104   64.4631   36.5769 Y7         2 LUT     -0.393485
    177 C38        86.1755   67.1358   32.9514 Y9         2 LUT     -0.387526
    178 C39        85.5662   67.9629   38.4467 W1         2 LUT     -0.322618
    179 C40        81.7016   66.5707   42.0815 W2         2 LUT     -0.358472
    180 H403       81.0384   66.8164   42.8741 R7         2 LUT      0.097720
    181 H402       82.5777   66.2805   42.5853 R7         2 LUT      0.097720
    182 H401       81.8934   67.5691   41.6597 R7         2 LUT      0.097720
    183 H393       86.5132   67.6570   38.8368 R4         2 LUT      0.082505
    184 H392       85.7238   68.7936   37.7104 R4         2 LUT      0.082505
    185 H391       84.9386   68.2756   39.3054 R4         2 LUT      0.082505
    186 H383       85.6499   66.3555   32.4989 R1         2 LUT      0.104030
    187 H382       85.6220   67.4990   33.7799 R1         2 LUT      0.104030
    188 H381       86.2712   67.8656   32.0970 R1         2 LUT      0.104030
    189 H373       89.6934   64.1148   36.9841 T4         2 LUT      0.089537
    190 H372       88.1339   65.0508   37.3887 T4         2 LUT      0.089537
    191 H371       88.1674   63.5763   36.2433 T4         2 LUT      0.089537
    192 H363       89.3672   67.1146   36.7282 T4         2 LUT      0.089537
    193 H362       90.7301   66.1485   36.6405 T4         2 LUT      0.089537
    194 H361       90.4536   67.0932   35.2415 T4         2 LUT      0.089537
    195 H222       90.4945   64.2412   34.6264 U2         2 LUT      0.127376
    196 H221       88.8528   63.7748   33.9607 U2         2 LUT      0.127376
    197 H203       75.6315   62.5630   40.6439 R7         2 LUT      0.087068
    198 H202       74.7990   61.6906   41.7532 R7         2 LUT      0.087068
    199 H201       74.0123   63.1111   41.0686 R7         2 LUT      0.087068
    200 H193       71.7968   60.4216   44.4116 R4         2 LUT      0.089716
    201 H192       70.4287   60.3676   45.5366 R4         2 LUT      0.089716
    202 H191       70.3453   61.4158   44.1364 R4         2 LUT      0.089716
    203 H183       68.4598   65.5435   47.7823 R1         2 LUT      0.094572
    204 H182       68.6241   64.0656   46.8947 R1         2 LUT      0.094572
    205 H181       67.1190   64.4148   47.7113 R1         2 LUT      0.094572
    206 H173       70.2292   63.3355   51.4420 T4         2 LUT      0.093752
    207 H172       70.6449   61.6618   51.9740 T4         2 LUT      0.093752
    208 H171       71.5702   62.4479   50.6223 T4         2 LUT      0.093752
    209 H163       70.8767   60.2156   49.1323 T4         2 LUT      0.093752
    210 H162       70.1975   59.7361   50.7069 T4         2 LUT      0.093752
    211 H161       69.1753   59.6236   49.3191 T4         2 LUT      0.093752
    212 HO3        68.0585   63.0974   52.8888 Q1         2 LUT      0.300121
    213 H8         71.3563   63.4043   47.4477 U7         2 LUT      0.080784
    214 H7         69.2407   61.2044   47.1994 U6         2 LUT      0.042190
    215 H42        67.2635   64.8454   49.9801 U5         2 LUT      0.145166
    216 H41        68.7189   64.7980   50.8907 U5         2 LUT      0.145166
    217 H35        78.9933   65.6107   42.6040 T3         2 LUT      0.077919
    218 H34        79.9176   64.1242   40.0857 T2         2 LUT      0.073626
    219 H32        81.8501   64.6857   39.1937 T1         2 LUT      0.092510
    220 H31        83.3552   67.1724   40.1413 U9         2 LUT      0.070048
    221 H30        83.7018   64.9174   37.8655 U8         2 LUT      0.085442
    222 H3         66.5402   63.0167   50.4553 U3         2 LUT     -0.031596
    223 H28        85.1867   65.2161   36.3124 U7         2 LUT      0.084728
    224 H27        87.0648   67.5914   36.3178 U6         2 LUT      0.087291
    225 H26        86.9420   64.9657   34.5475 Q6         2 LUT      0.075325
    226 H24        88.4151   66.4748   31.5277 Q5         2 LUT      0.094482
    227 H23        90.4514   66.3594   33.2744 U3         2 LUT     -0.024869
    228 H22        67.5562   61.1181   50.0308 U2         2 LUT      0.127376
    229 H21        68.1477   60.9629   51.5440 U2         2 LUT      0.127376
    230 H15        77.7318   63.3915   40.9186 T3         2 LUT      0.093200
    231 H14        76.8960   64.6571   43.6027 T2         2 LUT      0.068865
    232 H12        74.9100   64.2190   44.6746 T1         2 LUT      0.095507
    233 H11        73.1926   62.0226   43.4021 U9         2 LUT      0.068930
    234 H10        73.0570   63.7116   45.9812 U8         2 LUT      0.083911
    235 H1         89.9146   64.3767   31.4569 Q1         2 LUT      0.297311
@<TRIPOS>BOND
    1     6     1 1
    2     7     2 1
    3     8     3 1
    4     9     4 1
    5    11     4 1
    6    12     6 1
    7    13     9 1
    8    16     9 1
    9    25     5 1
   10    25    16 1
   11    26    10 1
   12    26    17 1
   13    27    18 1
   14    28    14 1
   15    28    19 1
   16    29    12 1
   17    30    13 1
   18    31    24 1
   19    32     1 1
   20    32    25 1
   21    33    21 1
   22    33    26 1
   23    34    22 1
   24    34    27 1
   25    35    23 1
   26    35    28 1
   27    36    12 1
   28    36    24 1
   29    37    13 1
   30    37    15 1
   31    38    31 1
   32    39    20 1
   33    39    32 1
   34    40     2 1
   35    40    33 1
   36    41     3 1
   37    41    34 1
   38    42     4 1
   39    42    35 1
   40    43    38 1
   41    44     5 1
   42    44    17 1
   43    44    39 1
   44    45    10 1
   45    45    18 1
   46    45    40 1
   47    46    19 1
   48    46    41 1
   49    47    14 1
   50    47    16 1
   51    47    42 1
   52    48    38 1
   53    49    48 1
   54    50    49 1
   55    51    50 1
   56    52    51 1
   57    53    51 1
   58    54    53 1
   59    55    54 1
   60    56    55 1
   61    57    56 1
   62    58    56 1
   63    59    58 1
   64    60    59 1
   65    61    60 1
   66    62    61 1
   67    63    61 1
   68    64    27 1
   69    64    46 1
   70    65     5 1
   71    65    10 1
   72    65    64 1
   73    65    14 1
   74    66    23 1
   75    67    23 1
   76    68    23 1
   77    69    22 1
   78    70    22 1
   79    71    22 1
   80    72    21 1
   81    73    21 1
   82    74    21 1
   83    75    20 1
   84    76    20 1
   85    77    20 1
   86    78    15 1
   87    79    15 1
   88    80    15 1
   89    81     8 1
   90    82     8 1
   91    83     8 1
   92    84     7 1
   93    85     7 1
   94    86     6 1
   95    87     6 1
   96    88     3 1
   97    89     3 1
   98    90     1 1
   99    91     1 1
  100    92    63 1
  101    93    63 1
  102    94    63 1
  103    95    62 1
  104    96    62 1
  105    97    62 1
  106    98    60 1
  107    99    60 1
  108   100    59 1
  109   101    59 1
  110   102    58 1
  111   103    58 1
  112   104    57 1
  113   105    57 1
  114   106    57 1
  115   107    55 1
  116   108    55 1
  117   109    54 1
  118   110    54 1
  119   111    53 1
  120   112    53 1
  121   113    19 1
  122   114    18 1
  123   115    17 1
  124   116     9 1
  125   117     2 1
  126   118    52 1
  127   119    52 1
  128   120    52 1
  129   121    51 1
  130   122    50 1
  131   123    50 1
  132   124    49 1
  133   125    49 1
  134   126    48 1
  135   127    48 1
  136   128    43 1
  137   129    43 1
  138   130    43 1
  139   131    39 1
  140   132    32 1
  141   133    31 1
  142   134    61 1
  143   135    56 1
  144   136    24 1
  145   137    24 1
  146   139   138 1
  147   140   139 1
  148   141   140 1
  149   142   140 1
  150   143   142 1
  151   144   138 1
  152   144   143 1
  153   145   144 1
  154   146   145 1
  155   147   146 1
  156   148   147 1
  157   149   148 1
  158   150   149 1
  159   151   150 1
  160   152   151 1
  161   153   152 1
  162   154   138 1
  163   155   138 1
  164   156   143 1
  165   157   147 1
  166   158   151 1
  167   160   159 1
  168   161   160 1
  169   162   161 1
  170   163   161 1
  171   164   163 1
  172   165   159 1
  173   165   164 1
  174   166   165 1
  175   167   166 1
  176   168   167 1
  177   169   168 1
  178   170   169 1
  179   171   170 1
  180   172   171 1
  181   173   172 1
  182   174   153 1
  183   174   173 1
  184   175   159 1
  185   176   159 1
  186   177   164 1
  187   178   168 1
  188   179   172 1
  189   180   179 1
  190   181   179 1
  191   182   179 1
  192   183   178 1
  193   184   178 1
  194   185   178 1
  195   186   177 1
  196   187   177 1
  197   188   177 1
  198   189   176 1
  199   190   176 1
  200   191   176 1
  201   192   175 1
  202   193   175 1
  203   194   175 1
  204   195   160 1
  205   196   160 1
  206   197   158 1
  207   198   158 1
  208   199   158 1
  209   200   157 1
  210   201   157 1
  211   202   157 1
  212   203   156 1
  213   204   156 1
  214   205   156 1
  215   206   155 1
  216   207   155 1
  217   208   155 1
  218   209   154 1
  219   210   154 1
  220   211   154 1
  221   212   141 1
  222   213   146 1
  223   214   145 1
  224   215   142 1
  225   216   142 1
  226   217   174 1
  227   218   173 1
  228   219   171 1
  229   220   170 1
  230   221   169 1
  231   222   140 1
  232   223   167 1
  233   224   166 1
  234   225   165 1
  235   226   163 1
  236   227   161 1
  237   228   139 1
  238   229   139 1
  239   230   153 1
  240   231   152 1
  241   232   150 1
  242   233   149 1
  243   234   148 1
  244   235   162 1
  245   65    153 1
  246   65    174 1
@<TRIPOS>SUBSTRUCTURE
      1 CLA               1 ****               0 ****  **** 
      2 LUT             138 ****               0 ****  **** 
