@<TRIPOS>MOLECULE
Cpptraj generated mol2 file.
  235   246     2     0     0
SMALL
USER_CHARGES


@<TRIPOS>ATOM
      1 CAA        77.4465   57.7030   34.5286 a2         1 CLA     -0.055900
      2 CAB        77.5322   61.7764   43.5917 c8         1 CLA     -0.148500
      3 CAC        70.5490   57.7521   43.0830 a2         1 CLA     -0.012600
      4 CAD        73.1799   55.1887   35.9454 ck         1 CLA      0.398800
      5 NA         76.3547   58.3523   37.9393 ns         1 CLA     -0.225500
      6 CBA        78.6632   57.3562   33.6430 a2         1 CLA     -0.135000
      7 CBB        77.2432   61.1399   44.7474 c0         1 CLA     -0.395200
      8 CBC        70.7630   56.1992   43.3444 a3         1 CLA     -0.037700
      9 CBD        74.6669   55.7683   35.5571 a1         1 CLA     -0.053900
     10 NB         76.2127   59.8626   40.6174 nm         1 CLA     -0.295700
     11 OBD        72.4913   54.3202   35.3463 o2         1 CLA     -0.494600
     12 CGA        79.0897   55.8817   33.5798 c4         1 CLA      0.827000
     13 CGD        75.5481   54.5576   35.5827 c4         1 CLA      0.655300
     14 ND         73.5861   57.3809   38.6348 nm         1 CLA     -0.291600
     15 CED        75.9859   52.5366   36.9147 a3         1 CLA      0.005400
     16 CHA        75.0254   56.7736   36.6998 cs         1 CLA     -0.123800
     17 CHB        78.0503   59.7484   38.9557 aa         1 CLA     -0.291900
     18 CHC        74.8546   60.4332   42.5609 aa         1 CLA     -0.090400
     19 CHD        71.7123   57.3341   40.2283 aa         1 CLA     -0.052000
     20 CMA        79.8084   57.8119   37.2703 a3         1 CLA     -0.230700
     21 CMB        79.4814   61.5871   41.2305 a3         1 CLA     -0.180800
     22 CMC        72.3720   60.0610   44.5941 a3         1 CLA     -0.134000
     23 CMD        70.3832   55.2308   38.2289 a3         1 CLA     -0.141100
     24 C1         79.8991   54.1170   35.0275 a2         1 CLA      0.023000
     25 C1A        76.1870   57.5718   36.8388 ac         1 CLA     -0.015100
     26 C1B        77.4831   60.1599   40.2132 cr         1 CLA      0.054700
     27 C1C        73.6179   59.7006   42.2963 cn         1 CLA     -0.005600
     28 C1D        72.3571   56.8820   39.0539 ap         1 CLA     -0.047300
     29 O1A        78.8195   55.0913   32.7323 o2         1 CLA     -0.610800
     30 O1D        76.3773   54.3045   34.6918 o2         1 CLA     -0.558200
     31 C2         80.4431   53.9950   36.4383 c8         1 CLA     -0.325100
     32 C2A        77.5617   57.4345   36.0637 a1         1 CLA      0.098600
     33 C2B        78.1223   60.9856   41.1971 cb         1 CLA      0.088500
     34 C2C        72.4981   59.4164   43.2110 cb         1 CLA      0.053700
     35 C2D        71.8157   55.9175   38.1808 cb         1 CLA      0.058900
     36 O2A        79.6575   55.5478   34.7776 o1         1 CLA     -0.437200
     37 O2D        75.2954   53.8253   36.6742 o1         1 CLA     -0.357600
     38 C3         81.4764   53.2338   36.8718 c5         1 CLA      0.031200
     39 C3A        78.4984   58.4109   36.8052 a1         1 CLA      0.166800
     40 C3B        77.2709   61.1766   42.2523 cb         1 CLA      0.035000
     41 C3C        71.7508   58.4394   42.5453 cb         1 CLA     -0.089900
     42 C3D        72.8378   55.8368   37.1842 cb         1 CLA     -0.035900
     43 C4         81.2673   51.7786   37.2452 a3         1 CLA     -0.053300
     44 C4A        77.5972   58.8906   37.9381 ac         1 CLA      0.001800
     45 C4B        76.0151   60.5262   41.8001 cn         1 CLA     -0.020900
     46 C4C        72.2618   58.2077   41.2133 cr         1 CLA     -0.044400
     47 C4D        73.8484   56.7265   37.4930 c6         1 CLA     -0.046000
     48 C5         82.9386   53.6838   36.7758 a2         1 CLA     -0.070400
     49 C6         83.2028   55.2492   36.8487 a2         1 CLA      0.043900
     50 C7         83.2101   55.6135   38.3546 a2         1 CLA     -0.150000
     51 C8         83.5537   57.1028   38.7115 a1         1 CLA      0.064200
     52 C9         84.8192   57.5311   37.8845 a3         1 CLA     -0.259300
     53 C10        83.9088   57.3065   40.2719 a2         1 CLA     -0.071900
     54 C11        82.7038   57.5875   41.1802 a2         1 CLA      0.014500
     55 C12        83.1053   57.9511   42.5723 a2         1 CLA     -0.112100
     56 C13        84.0543   56.9403   43.3438 a1         1 CLA      0.089200
     57 C14        83.4029   55.6031   43.8029 a3         1 CLA     -0.239100
     58 C15        84.7573   57.6253   44.5408 a2         1 CLA     -0.102200
     59 C16        83.8970   58.1933   45.7286 a2         1 CLA      0.023900
     60 C17        84.5944   59.1374   46.6811 a2         1 CLA     -0.105700
     61 C18        83.9295   59.2736   48.0972 a1         1 CLA      0.206800
     62 C19        84.7178   60.2793   48.9302 a3         1 CLA     -0.280100
     63 C20        82.3797   59.6180   48.1069 a3         1 CLA     -0.280100
     64 NC         73.4219   58.9280   41.1207 nx         1 CLA     -0.309200
     65 MG         74.8107   58.7516   39.5844 mg         1 CLA      0.895000
     66 HMD3       70.4282   54.4087   37.5437 dc         1 CLA      0.064300
     67 HMD2       70.0823   55.0352   39.2699 dc         1 CLA      0.064300
     68 HMD1       69.6244   55.9659   37.8960 dc         1 CLA      0.064300
     69 HMC3       72.6947   61.0828   44.5145 dc         1 CLA      0.052100
     70 HMC2       71.3185   59.9791   44.9678 dc         1 CLA      0.052100
     71 HMC1       73.1192   59.5533   45.3341 dc         1 CLA      0.052100
     72 HMB3       80.1136   60.9347   41.8258 dc         1 CLA      0.063600
     73 HMB2       79.8485   61.5143   40.1468 dc         1 CLA      0.063600
     74 HMB1       79.4265   62.6237   41.6174 dc         1 CLA      0.063600
     75 HMA3       80.3000   57.2953   36.4419 dc         1 CLA      0.058300
     76 HMA2       80.4329   58.6289   37.6716 dc         1 CLA      0.058300
     77 HMA1       79.5840   57.0756   38.0174 dc         1 CLA      0.058300
     78 HED3       77.0296   52.5797   36.6593 dc         1 CLA      0.079300
     79 HED2       75.8701   52.2918   37.9652 dc         1 CLA      0.079300
     80 HED1       75.6237   51.7459   36.3505 dc         1 CLA      0.079300
     81 HBC3       71.1707   55.8520   42.4129 dc         1 CLA      0.016300
     82 HBC2       71.5893   55.9936   43.9991 dc         1 CLA      0.016300
     83 HBC1       69.8142   55.7611   43.6428 dc         1 CLA      0.016300
     84 HBB2       77.5118   61.5657   45.6910 da         1 CLA      0.183000
     85 HBB1       76.7421   60.1255   44.7207 da         1 CLA      0.183000
     86 HBA2       78.3762   57.7313   32.7159 dc         1 CLA      0.029400
     87 HBA1       79.5354   57.9443   33.9721 dc         1 CLA      0.029400
     88 HAC2       70.2693   58.1805   44.0484 dc         1 CLA      0.029300
     89 HAC1       69.7141   57.7829   42.4646 dc         1 CLA      0.029300
     90 HAA2       76.5531   57.2239   34.1890 dc         1 CLA      0.028700
     91 HAA1       77.1317   58.7805   34.3001 dc         1 CLA      0.028700
     92 H203       82.1061   59.6652   49.1142 dc         1 CLA      0.065600
     93 H202       82.1080   60.5806   47.6417 dc         1 CLA      0.065600
     94 H201       81.8542   58.7903   47.6709 dc         1 CLA      0.065600
     95 H193       84.0878   60.4004   49.8270 dc         1 CLA      0.065600
     96 H192       85.7424   59.9798   49.1445 dc         1 CLA      0.065600
     97 H191       84.8402   61.1994   48.3424 dc         1 CLA      0.065600
     98 H172       85.6124   58.8318   46.8494 dc         1 CLA      0.027600
     99 H171       84.6625   60.1174   46.2124 dc         1 CLA      0.027600
    100 H162       82.9298   58.5331   45.4315 dc         1 CLA      0.002900
    101 H161       83.6376   57.3288   46.3168 dc         1 CLA      0.002900
    102 H152       85.6148   57.0910   44.8823 dc         1 CLA      0.029100
    103 H151       85.1419   58.5751   44.1142 dc         1 CLA      0.029100
    104 H143       84.0360   54.7801   44.1876 dc         1 CLA      0.063600
    105 H142       82.6329   55.8008   44.5320 dc         1 CLA      0.063600
    106 H141       82.8194   55.2257   43.0250 dc         1 CLA      0.063600
    107 H122       83.5670   58.8853   42.4993 dc         1 CLA      0.032500
    108 H121       82.2941   58.2452   43.2062 dc         1 CLA      0.032500
    109 H112       82.1731   58.4068   40.7342 dc         1 CLA      0.006600
    110 H111       82.0315   56.7094   41.1024 dc         1 CLA      0.006600
    111 H102       84.4784   56.4052   40.5823 dc         1 CLA      0.024100
    112 H101       84.5374   58.1334   40.4363 dc         1 CLA      0.024100
    113 HHD        70.6726   56.9822   40.4557 da         1 CLA      0.174300
    114 HHC        74.7649   61.0419   43.4604 da         1 CLA      0.136800
    115 HHB        79.0218   60.2355   38.8001 da         1 CLA      0.138300
    116 HBD        74.5895   56.0430   34.4517 dc         1 CLA      0.107700
    117 HAB        78.0831   62.7198   43.6413 da         1 CLA      0.155200
    118 H93        85.6317   56.8496   38.1362 dc         1 CLA      0.069500
    119 H92        84.6084   57.4969   36.8001 dc         1 CLA      0.069500
    120 H91        85.0896   58.6412   38.1318 dc         1 CLA      0.069500
    121 H8         82.8134   57.8219   38.3595 dc         1 CLA      0.029300
    122 H72        82.2538   55.5453   38.7958 dc         1 CLA      0.044400
    123 H71        83.9087   54.9799   38.9340 dc         1 CLA      0.044400
    124 H62        84.1855   55.3889   36.5349 dc         1 CLA      0.015600
    125 H61        82.4247   55.8290   36.3246 dc         1 CLA      0.015600
    126 H52        83.5351   53.2215   37.5305 dc         1 CLA      0.033200
    127 H51        83.3378   53.1776   35.8981 dc         1 CLA      0.033200
    128 H43        80.2891   51.3921   36.9262 dc         1 CLA      0.037000
    129 H42        82.1666   51.2923   36.7297 dc         1 CLA      0.037000
    130 H41        81.3378   51.7448   38.3263 dc         1 CLA      0.037000
    131 H3A        78.6642   59.3153   36.1972 dc         1 CLA      0.041100
    132 H2A        77.9070   56.4696   36.1955 dc         1 CLA      0.083100
    133 H2         79.9463   54.5242   37.2330 da         1 CLA      0.180900
    134 H18        83.8684   58.3114   48.5625 dc         1 CLA     -0.003900
    135 H13        84.7897   56.7306   42.6061 dc         1 CLA      0.019700
    136 H12        79.0103   53.5216   34.8100 dc         1 CLA      0.120400
    137 H11        80.6306   53.6678   34.3073 dc         1 CLA      0.120400
    138 C1         67.3996   61.5128   50.1521 Z1         2 LUT      0.509236
    139 C2         65.9332   61.2220   50.7483 Z2         2 LUT     -0.434695
    140 C3         65.1294   62.4536   51.0057 Z3         2 LUT      0.437453
    141 O3         65.2376   62.6104   52.4109 S1         2 LUT     -0.547129
    142 C4         65.5117   63.7450   50.2963 Z4         2 LUT     -0.468603
    143 C5         66.1227   63.4236   49.0037 Z5         2 LUT      0.279246
    144 C6         67.0304   62.4245   48.9187 Z6         2 LUT     -0.305473
    145 C7         67.4148   61.8062   47.6192 Z7         2 LUT      0.069402
    146 C8         68.2661   62.3662   46.7392 Z8         2 LUT     -0.191631
    147 C9         68.7681   61.8439   45.4106 Z9         2 LUT      0.196698
    148 C10        69.6024   62.7057   44.7234 Y1         2 LUT     -0.208611
    149 C11        70.3361   62.4790   43.4413 Y2         2 LUT      0.030784
    150 C12        71.4467   63.1066   43.0062 Y3         2 LUT     -0.220316
    151 C13        72.2565   62.9608   41.7794 Y4         2 LUT      0.215937
    152 C14        73.4941   63.6239   41.8963 Y5         2 LUT     -0.185793
    153 C15        74.6895   63.5435   41.0749 Y6         2 LUT     -0.057835
    154 C16        68.1110   60.1209   50.1363 Y7         2 LUT     -0.405615
    155 C17        68.0772   62.1472   51.4623 Y7         2 LUT     -0.405615
    156 C18        65.4626   64.0728   47.7722 Y9         2 LUT     -0.369639
    157 C19        68.2407   60.4829   44.9019 W1         2 LUT     -0.333362
    158 C20        71.8087   61.9468   40.8095 W2         2 LUT     -0.323439
    159 C21        86.3255   65.0794   35.3066 Z1         2 LUT      0.406104
    160 C22        86.9169   64.3142   34.1166 Z2         2 LUT     -0.404965
    161 C23        86.7590   65.0423   32.8289 Z3         2 LUT      0.391255
    162 O23        86.9187   63.9905   31.8244 S1         2 LUT     -0.528210
    163 C24        85.4796   65.7771   32.5959 W6         2 LUT     -0.258361
    164 C25        84.5844   66.0892   33.5441 Z5         2 LUT      0.133546
    165 C26        84.9316   65.6637   35.0296 W8         2 LUT     -0.147008
    166 C27        84.1697   66.3144   36.2377 Z7         2 LUT      0.023843
    167 C28        83.0529   65.7670   36.8219 Z8         2 LUT     -0.216987
    168 C29        82.4513   66.1037   38.1362 Z9         2 LUT      0.206524
    169 C30        81.2125   65.5734   38.4666 Y1         2 LUT     -0.215556
    170 C31        80.3294   65.6163   39.6154 Y2         2 LUT      0.025142
    171 C32        79.1572   64.9944   39.7418 Y3         2 LUT     -0.212209
    172 C33        78.1984   65.0093   40.8170 Y4         2 LUT      0.240937
    173 C34        77.0841   64.1874   40.6304 Y5         2 LUT     -0.218862
    174 C35        75.9107   64.0683   41.4443 Y6         2 LUT     -0.023547
    175 C36        87.3667   66.1773   35.6782 Y7         2 LUT     -0.393485
    176 C37        86.3668   64.0023   36.4559 Y7         2 LUT     -0.393485
    177 C38        83.2134   66.6607   33.2252 Y9         2 LUT     -0.387526
    178 C39        83.1226   67.0215   39.0751 W1         2 LUT     -0.322618
    179 C40        78.3113   66.0229   41.9763 W2         2 LUT     -0.358472
    180 H403       78.2222   67.0794   41.5923 R7         2 LUT      0.097720
    181 H402       77.5708   65.9511   42.7227 R7         2 LUT      0.097720
    182 H401       79.3001   65.9684   42.3908 R7         2 LUT      0.097720
    183 H393       84.1809   67.2443   38.7789 R4         2 LUT      0.082505
    184 H392       82.6381   67.9900   39.1721 R4         2 LUT      0.082505
    185 H391       83.0475   66.4716   40.0566 R4         2 LUT      0.082505
    186 H383       83.1214   67.7065   33.5474 R1         2 LUT      0.104030
    187 H382       83.0221   66.6662   32.1146 R1         2 LUT      0.104030
    188 H381       82.3616   66.1657   33.7824 R1         2 LUT      0.104030
    189 H373       85.8938   64.2203   37.4078 T4         2 LUT      0.089537
    190 H372       85.8802   63.1439   36.1271 T4         2 LUT      0.089537
    191 H371       87.3485   63.7229   36.6893 T4         2 LUT      0.089537
    192 H363       87.4361   67.0758   34.9868 T4         2 LUT      0.089537
    193 H362       87.2387   66.5507   36.7389 T4         2 LUT      0.089537
    194 H361       88.3761   65.7567   35.6165 T4         2 LUT      0.089537
    195 H222       87.9677   64.0446   34.2400 U2         2 LUT      0.127376
    196 H221       86.2730   63.4092   33.9348 U2         2 LUT      0.127376
    197 H203       72.6535   61.6263   40.1566 R7         2 LUT      0.087068
    198 H202       71.4650   61.0216   41.3262 R7         2 LUT      0.087068
    199 H201       71.0871   62.3112   40.0952 R7         2 LUT      0.087068
    200 H193       67.1600   60.4662   45.0914 R4         2 LUT      0.089716
    201 H192       68.4581   60.3781   43.7985 R4         2 LUT      0.089716
    202 H191       68.7283   59.6492   45.3878 R4         2 LUT      0.089716
    203 H183       65.8243   65.0648   47.6190 R1         2 LUT      0.094572
    204 H182       65.5964   63.4036   46.9138 R1         2 LUT      0.094572
    205 H181       64.4093   64.1647   47.9053 R1         2 LUT      0.094572
    206 H173       68.1526   63.2234   51.4934 T4         2 LUT      0.093752
    207 H172       67.7061   61.7213   52.4567 T4         2 LUT      0.093752
    208 H171       69.1478   61.9423   51.3371 T4         2 LUT      0.093752
    209 H163       68.0071   59.4832   51.0222 T4         2 LUT      0.093752
    210 H162       67.7962   59.4674   49.2859 T4         2 LUT      0.093752
    211 H161       69.2385   60.1737   50.0145 T4         2 LUT      0.093752
    212 HO3        64.3483   62.5594   52.7809 Q1         2 LUT      0.300121
    213 H8         68.6747   63.3446   47.0022 U7         2 LUT      0.080784
    214 H7         67.1818   60.7454   47.4416 U6         2 LUT      0.042190
    215 H42        64.6517   64.3715   50.1334 U5         2 LUT      0.145166
    216 H41        66.0937   64.4091   50.9124 U5         2 LUT      0.145166
    217 H35        75.9663   64.6172   42.3051 T3         2 LUT      0.077919
    218 H34        77.1033   63.5206   39.8314 T2         2 LUT      0.073626
    219 H32        78.8012   64.3159   38.9156 T1         2 LUT      0.092510
    220 H31        80.6278   66.3816   40.3439 U9         2 LUT      0.070048
    221 H30        80.8080   64.9489   37.7599 U8         2 LUT      0.085442
    222 H3         64.1218   62.3568   50.6012 U3         2 LUT     -0.031596
    223 H28        82.5883   64.8807   36.2976 U7         2 LUT      0.084728
    224 H27        84.5617   67.2334   36.6280 U6         2 LUT      0.087291
    225 H26        84.4055   64.6846   35.0388 Q6         2 LUT      0.075325
    226 H24        85.2068   66.1087   31.5531 Q5         2 LUT      0.094482
    227 H23        87.6417   65.6990   32.6328 U3         2 LUT     -0.024869
    228 H22        65.4086   60.7088   50.0158 U2         2 LUT      0.127376
    229 H21        66.0050   60.5968   51.7065 U2         2 LUT      0.127376
    230 H15        74.5010   63.0467   40.1109 T3         2 LUT      0.093200
    231 H14        73.6967   64.0283   42.8766 T2         2 LUT      0.068865
    232 H12        71.8313   63.8652   43.7155 T1         2 LUT      0.095507
    233 H11        69.9769   61.5756   42.8581 U9         2 LUT      0.068930
    234 H10        69.8546   63.6147   45.2422 U8         2 LUT      0.083911
    235 H1         87.0212   64.3413   30.9454 Q1         2 LUT      0.297311
@<TRIPOS>BOND
    1     6     1 1
    2     7     2 1
    3     8     3 1
    4     9     4 1
    5    11     4 1
    6    12     6 1
    7    13     9 1
    8    16     9 1
    9    25     5 1
   10    25    16 1
   11    26    10 1
   12    26    17 1
   13    27    18 1
   14    28    14 1
   15    28    19 1
   16    29    12 1
   17    30    13 1
   18    31    24 1
   19    32     1 1
   20    32    25 1
   21    33    21 1
   22    33    26 1
   23    34    22 1
   24    34    27 1
   25    35    23 1
   26    35    28 1
   27    36    12 1
   28    36    24 1
   29    37    13 1
   30    37    15 1
   31    38    31 1
   32    39    20 1
   33    39    32 1
   34    40     2 1
   35    40    33 1
   36    41     3 1
   37    41    34 1
   38    42     4 1
   39    42    35 1
   40    43    38 1
   41    44     5 1
   42    44    17 1
   43    44    39 1
   44    45    10 1
   45    45    18 1
   46    45    40 1
   47    46    19 1
   48    46    41 1
   49    47    14 1
   50    47    16 1
   51    47    42 1
   52    48    38 1
   53    49    48 1
   54    50    49 1
   55    51    50 1
   56    52    51 1
   57    53    51 1
   58    54    53 1
   59    55    54 1
   60    56    55 1
   61    57    56 1
   62    58    56 1
   63    59    58 1
   64    60    59 1
   65    61    60 1
   66    62    61 1
   67    63    61 1
   68    64    27 1
   69    64    46 1
   70    65     5 1
   71    65    10 1
   72    65    64 1
   73    65    14 1
   74    66    23 1
   75    67    23 1
   76    68    23 1
   77    69    22 1
   78    70    22 1
   79    71    22 1
   80    72    21 1
   81    73    21 1
   82    74    21 1
   83    75    20 1
   84    76    20 1
   85    77    20 1
   86    78    15 1
   87    79    15 1
   88    80    15 1
   89    81     8 1
   90    82     8 1
   91    83     8 1
   92    84     7 1
   93    85     7 1
   94    86     6 1
   95    87     6 1
   96    88     3 1
   97    89     3 1
   98    90     1 1
   99    91     1 1
  100    92    63 1
  101    93    63 1
  102    94    63 1
  103    95    62 1
  104    96    62 1
  105    97    62 1
  106    98    60 1
  107    99    60 1
  108   100    59 1
  109   101    59 1
  110   102    58 1
  111   103    58 1
  112   104    57 1
  113   105    57 1
  114   106    57 1
  115   107    55 1
  116   108    55 1
  117   109    54 1
  118   110    54 1
  119   111    53 1
  120   112    53 1
  121   113    19 1
  122   114    18 1
  123   115    17 1
  124   116     9 1
  125   117     2 1
  126   118    52 1
  127   119    52 1
  128   120    52 1
  129   121    51 1
  130   122    50 1
  131   123    50 1
  132   124    49 1
  133   125    49 1
  134   126    48 1
  135   127    48 1
  136   128    43 1
  137   129    43 1
  138   130    43 1
  139   131    39 1
  140   132    32 1
  141   133    31 1
  142   134    61 1
  143   135    56 1
  144   136    24 1
  145   137    24 1
  146   139   138 1
  147   140   139 1
  148   141   140 1
  149   142   140 1
  150   143   142 1
  151   144   138 1
  152   144   143 1
  153   145   144 1
  154   146   145 1
  155   147   146 1
  156   148   147 1
  157   149   148 1
  158   150   149 1
  159   151   150 1
  160   152   151 1
  161   153   152 1
  162   154   138 1
  163   155   138 1
  164   156   143 1
  165   157   147 1
  166   158   151 1
  167   160   159 1
  168   161   160 1
  169   162   161 1
  170   163   161 1
  171   164   163 1
  172   165   159 1
  173   165   164 1
  174   166   165 1
  175   167   166 1
  176   168   167 1
  177   169   168 1
  178   170   169 1
  179   171   170 1
  180   172   171 1
  181   173   172 1
  182   174   153 1
  183   174   173 1
  184   175   159 1
  185   176   159 1
  186   177   164 1
  187   178   168 1
  188   179   172 1
  189   180   179 1
  190   181   179 1
  191   182   179 1
  192   183   178 1
  193   184   178 1
  194   185   178 1
  195   186   177 1
  196   187   177 1
  197   188   177 1
  198   189   176 1
  199   190   176 1
  200   191   176 1
  201   192   175 1
  202   193   175 1
  203   194   175 1
  204   195   160 1
  205   196   160 1
  206   197   158 1
  207   198   158 1
  208   199   158 1
  209   200   157 1
  210   201   157 1
  211   202   157 1
  212   203   156 1
  213   204   156 1
  214   205   156 1
  215   206   155 1
  216   207   155 1
  217   208   155 1
  218   209   154 1
  219   210   154 1
  220   211   154 1
  221   212   141 1
  222   213   146 1
  223   214   145 1
  224   215   142 1
  225   216   142 1
  226   217   174 1
  227   218   173 1
  228   219   171 1
  229   220   170 1
  230   221   169 1
  231   222   140 1
  232   223   167 1
  233   224   166 1
  234   225   165 1
  235   226   163 1
  236   227   161 1
  237   228   139 1
  238   229   139 1
  239   230   153 1
  240   231   152 1
  241   232   150 1
  242   233   149 1
  243   234   148 1
  244   235   162 1
  245   65    153 1
  246   65    174 1
@<TRIPOS>SUBSTRUCTURE
      1 CLA               1 ****               0 ****  **** 
      2 LUT             138 ****               0 ****  **** 
