@<TRIPOS>MOLECULE
Cpptraj generated mol2 file.
  235   246     2     0     0
SMALL
USER_CHARGES


@<TRIPOS>ATOM
      1 CAA        78.1672   58.3188   35.4064 a2         1 CLA     -0.055900
      2 CAB        77.3037   62.5076   44.0913 c8         1 CLA     -0.148500
      3 CAC        71.1560   57.3981   43.5690 a2         1 CLA     -0.012600
      4 CAD        74.2696   55.2723   36.4367 ck         1 CLA      0.398800
      5 NA         77.0204   58.6723   38.6377 ns         1 CLA     -0.225500
      6 CBA        79.4571   58.3499   34.6056 a2         1 CLA     -0.135000
      7 CBB        78.3655   62.6725   44.9517 c0         1 CLA     -0.395200
      8 CBC        71.3675   55.8835   43.5258 a3         1 CLA     -0.037700
      9 CBD        75.6983   55.8683   36.2577 a1         1 CLA     -0.053900
     10 NB         76.6286   60.2543   41.2109 nm         1 CLA     -0.295700
     11 OBD        73.7516   54.4041   35.7409 o2         1 CLA     -0.494600
     12 CGA        80.2169   56.9852   34.4099 c4         1 CLA      0.827000
     13 CGD        76.7476   54.7900   36.4384 c4         1 CLA      0.655300
     14 ND         74.2817   57.6431   39.1754 nm         1 CLA     -0.291600
     15 CED        77.3765   52.8708   37.7007 a3         1 CLA      0.005400
     16 CHA        75.8206   57.0083   37.2863 cs         1 CLA     -0.123800
     17 CHB        78.5635   60.1838   39.7615 aa         1 CLA     -0.291900
     18 CHC        75.1059   60.4478   43.2366 aa         1 CLA     -0.090400
     19 CHD        72.4201   57.3440   40.6421 aa         1 CLA     -0.052000
     20 CMA        80.3987   58.0304   38.4457 a3         1 CLA     -0.230700
     21 CMB        79.8447   62.1377   41.9709 a3         1 CLA     -0.180800
     22 CMC        72.8599   59.4133   45.3263 a3         1 CLA     -0.134000
     23 CMD        71.3247   55.3409   38.5177 a3         1 CLA     -0.141100
     24 C1         82.3452   55.8954   35.2292 a2         1 CLA      0.023000
     25 C1A        76.9673   57.8238   37.5466 ac         1 CLA     -0.015100
     26 C1B        77.8847   60.6728   40.8584 cr         1 CLA      0.054700
     27 C1C        74.0237   59.6300   42.8890 cn         1 CLA     -0.005600
     28 C1D        73.1115   57.0429   39.4784 ap         1 CLA     -0.047300
     29 O1A        79.9668   56.0604   33.6783 o2         1 CLA     -0.610800
     30 O1D        77.7834   54.7090   35.7439 o2         1 CLA     -0.558200
     31 C2         82.6955   55.7834   36.6922 c8         1 CLA     -0.325100
     32 C2A        78.3043   57.8210   36.8245 a1         1 CLA      0.098600
     33 C2B        78.4100   61.5965   41.8906 cb         1 CLA      0.088500
     34 C2C        73.0186   59.1031   43.7560 cb         1 CLA      0.053700
     35 C2D        72.6694   56.0778   38.5126 cb         1 CLA      0.058900
     36 O2A        81.3476   56.9946   35.2783 o1         1 CLA     -0.437200
     37 O2D        76.3531   53.8231   37.3391 o1         1 CLA     -0.357600
     38 C3         82.6981   54.6339   37.3640 c5         1 CLA      0.031200
     39 C3A        79.1747   58.7070   37.7851 a1         1 CLA      0.166800
     40 C3B        77.3157   61.7082   42.8522 cb         1 CLA      0.035000
     41 C3C        72.2616   58.2309   42.9828 cb         1 CLA     -0.089900
     42 C3D        73.7657   55.9531   37.6417 cb         1 CLA     -0.035900
     43 C4         81.3895   53.9855   37.7255 a3         1 CLA     -0.053300
     44 C4A        78.2065   59.2756   38.7556 ac         1 CLA      0.001800
     45 C4B        76.2883   60.8071   42.4668 cn         1 CLA     -0.020900
     46 C4C        72.8106   58.1929   41.7326 cr         1 CLA     -0.044400
     47 C4D        74.6642   57.0284   38.0771 c6         1 CLA     -0.046000
     48 C5         84.0420   53.9508   37.6322 a2         1 CLA     -0.070400
     49 C6         85.3092   54.7755   37.8781 a2         1 CLA      0.043900
     50 C7         85.2207   55.5647   39.1427 a2         1 CLA     -0.150000
     51 C8         86.4134   56.5353   39.5470 a1         1 CLA      0.064200
     52 C9         87.7489   55.7691   39.4655 a3         1 CLA     -0.259300
     53 C10        86.2489   57.3297   40.8574 a2         1 CLA     -0.071900
     54 C11        84.8545   57.9426   41.1791 a2         1 CLA      0.014500
     55 C12        84.7905   58.7453   42.5013 a2         1 CLA     -0.112100
     56 C13        84.8927   58.0969   43.9601 a1         1 CLA      0.089200
     57 C14        84.0474   56.8586   44.3475 a3         1 CLA     -0.239100
     58 C15        84.9444   59.1395   45.0821 a2         1 CLA     -0.102200
     59 C16        83.7696   60.2349   45.2432 a2         1 CLA      0.023900
     60 C17        84.1282   61.0185   46.5123 a2         1 CLA     -0.105700
     61 C18        83.1830   62.1923   46.9375 a1         1 CLA      0.206800
     62 C19        81.7708   61.7498   47.1028 a3         1 CLA     -0.280100
     63 C20        83.6527   62.7525   48.3420 a3         1 CLA     -0.280100
     64 NC         73.9610   58.9477   41.6837 nx         1 CLA     -0.309200
     65 MG         75.4199   59.0371   40.0575 mg         1 CLA      0.895000
     66 HMD3       71.1439   55.1149   39.5445 dc         1 CLA      0.064300
     67 HMD2       70.5814   56.0298   38.1736 dc         1 CLA      0.064300
     68 HMD1       71.4801   54.3528   38.0412 dc         1 CLA      0.064300
     69 HMC3       72.2156   60.2919   45.4073 dc         1 CLA      0.052100
     70 HMC2       72.4358   58.4991   45.8216 dc         1 CLA      0.052100
     71 HMC1       73.8179   59.4582   45.7715 dc         1 CLA      0.052100
     72 HMB3       79.8375   62.9657   42.5413 dc         1 CLA      0.063600
     73 HMB2       80.5470   61.3552   42.4240 dc         1 CLA      0.063600
     74 HMB1       80.1969   62.2208   40.9327 dc         1 CLA      0.063600
     75 HMA3       80.1853   56.9260   38.3488 dc         1 CLA      0.058300
     76 HMA2       81.3670   58.3751   37.9839 dc         1 CLA      0.058300
     77 HMA1       80.4447   58.2715   39.5273 dc         1 CLA      0.058300
     78 HED3       77.4654   52.1387   36.9069 dc         1 CLA      0.079300
     79 HED2       78.3657   53.3824   37.8562 dc         1 CLA      0.079300
     80 HED1       77.1092   52.4188   38.6761 dc         1 CLA      0.079300
     81 HBC3       70.5632   55.4078   44.1118 dc         1 CLA      0.016300
     82 HBC2       71.2838   55.5445   42.5283 dc         1 CLA      0.016300
     83 HBC1       72.3954   55.5368   43.7969 dc         1 CLA      0.016300
     84 HBB2       78.3062   63.2188   45.9078 da         1 CLA      0.183000
     85 HBB1       79.3656   62.2092   44.7563 da         1 CLA      0.183000
     86 HBA2       79.1337   58.8229   33.6615 dc         1 CLA      0.029400
     87 HBA1       80.1539   58.9774   35.1257 dc         1 CLA      0.029400
     88 HAC2       70.8487   57.6537   44.5478 dc         1 CLA      0.029300
     89 HAC1       70.2723   57.5601   42.9867 dc         1 CLA      0.029300
     90 HAA2       77.4631   57.7130   34.8871 dc         1 CLA      0.028700
     91 HAA1       77.7673   59.3668   35.5003 dc         1 CLA      0.028700
     92 H203       83.3585   62.0374   49.1720 dc         1 CLA      0.065600
     93 H202       84.7476   63.0188   48.3720 dc         1 CLA      0.065600
     94 H201       83.1589   63.7059   48.6315 dc         1 CLA      0.065600
     95 H193       81.1410   62.6096   47.3020 dc         1 CLA      0.065600
     96 H192       81.4999   61.2617   46.1328 dc         1 CLA      0.065600
     97 H191       81.5947   61.0439   47.9058 dc         1 CLA      0.065600
     98 H172       84.1751   60.2923   47.3442 dc         1 CLA      0.027600
     99 H171       85.1506   61.4003   46.4620 dc         1 CLA      0.027600
    100 H162       83.6438   60.8432   44.3727 dc         1 CLA      0.002900
    101 H161       82.8818   59.6474   45.4839 dc         1 CLA      0.002900
    102 H152       85.1121   58.5983   46.0648 dc         1 CLA      0.029100
    103 H151       85.8321   59.7486   44.9233 dc         1 CLA      0.029100
    104 H143       83.0552   57.0168   43.9829 dc         1 CLA      0.063600
    105 H142       84.4554   55.9801   43.8309 dc         1 CLA      0.063600
    106 H141       83.9070   56.7538   45.4156 dc         1 CLA      0.063600
    107 H122       85.5809   59.4618   42.4664 dc         1 CLA      0.032500
    108 H121       83.8315   59.3048   42.5765 dc         1 CLA      0.032500
    109 H112       84.6126   58.4294   40.2686 dc         1 CLA      0.006600
    110 H111       84.1878   57.0810   41.2880 dc         1 CLA      0.006600
    111 H102       86.4998   56.7325   41.7134 dc         1 CLA      0.024100
    112 H101       86.9645   58.1402   40.6909 dc         1 CLA      0.024100
    113 HHD        71.4666   56.8474   40.8280 da         1 CLA      0.174300
    114 HHC        75.0197   60.7453   44.3068 da         1 CLA      0.136800
    115 HHB        79.5424   60.6267   39.7122 da         1 CLA      0.138300
    116 HBD        75.8420   56.2557   35.2525 dc         1 CLA      0.107700
    117 HAB        76.3940   62.9385   44.3683 da         1 CLA      0.155200
    118 H93        88.1003   55.5548   38.4743 dc         1 CLA      0.069500
    119 H92        88.5207   56.4178   39.8471 dc         1 CLA      0.069500
    120 H91        87.8185   54.9137   40.1480 dc         1 CLA      0.069500
    121 H8         86.3779   57.3244   38.7625 dc         1 CLA      0.029300
    122 H72        84.3415   56.1236   39.1072 dc         1 CLA      0.044400
    123 H71        85.3526   54.8210   39.9442 dc         1 CLA      0.044400
    124 H62        86.0715   53.9775   37.9802 dc         1 CLA      0.015600
    125 H61        85.4948   55.5189   37.0997 dc         1 CLA      0.015600
    126 H52        83.9384   53.1247   38.3589 dc         1 CLA      0.033200
    127 H51        84.3154   53.4787   36.6683 dc         1 CLA      0.033200
    128 H43        81.3471   53.7347   38.7573 dc         1 CLA      0.037000
    129 H42        80.5373   54.6422   37.5429 dc         1 CLA      0.037000
    130 H41        81.1981   53.0876   37.0628 dc         1 CLA      0.037000
    131 H3A        79.5481   59.5585   37.2110 dc         1 CLA      0.041100
    132 H2A        78.7518   56.8381   36.9281 dc         1 CLA      0.083100
    133 H2         82.6692   56.6691   37.3178 da         1 CLA      0.180900
    134 H18        83.3357   62.9673   46.2637 dc         1 CLA     -0.003900
    135 H13        85.9319   57.7019   44.0102 dc         1 CLA      0.019700
    136 H12        81.8946   55.0290   34.7239 dc         1 CLA      0.120400
    137 H11        83.2200   56.0945   34.6557 dc         1 CLA      0.120400
    138 C1         67.9960   61.7274   51.0573 Z1         2 LUT      0.509236
    139 C2         66.6791   61.4525   51.8155 Z2         2 LUT     -0.434695
    140 C3         65.6761   62.5890   51.9921 Z3         2 LUT      0.437453
    141 O3         65.9175   63.1364   53.3273 S1         2 LUT     -0.547129
    142 C4         65.9698   63.7767   50.9934 Z4         2 LUT     -0.468603
    143 C5         66.6785   63.4291   49.7906 Z5         2 LUT      0.279246
    144 C6         67.6564   62.4513   49.8165 Z6         2 LUT     -0.305473
    145 C7         68.0939   61.8991   48.4832 Z7         2 LUT      0.069402
    146 C8         69.1803   62.3701   47.7640 Z8         2 LUT     -0.191631
    147 C9         69.5874   61.9489   46.4725 Z9         2 LUT      0.196698
    148 C10        70.5488   62.6920   45.8489 Y1         2 LUT     -0.208611
    149 C11        71.0551   62.7445   44.4910 Y2         2 LUT      0.030784
    150 C12        72.0770   63.6470   44.0985 Y3         2 LUT     -0.220316
    151 C13        72.8758   63.7292   42.9199 Y4         2 LUT      0.215937
    152 C14        74.1020   64.3844   42.9129 Y5         2 LUT     -0.185793
    153 C15        75.2773   64.3325   42.0620 Y6         2 LUT     -0.057835
    154 C16        68.7318   60.4837   50.7430 Y7         2 LUT     -0.405615
    155 C17        68.8379   62.5617   52.0259 Y7         2 LUT     -0.405615
    156 C18        66.0754   64.1832   48.5541 Y9         2 LUT     -0.369639
    157 C19        68.8982   60.7734   45.7389 W1         2 LUT     -0.333362
    158 C20        72.4680   62.9060   41.6994 W2         2 LUT     -0.323439
    159 C21        87.0761   64.8509   36.0058 Z1         2 LUT      0.406104
    160 C22        87.9347   64.5123   34.7498 Z2         2 LUT     -0.404965
    161 C23        88.1819   65.7500   33.9148 Z3         2 LUT      0.391255
    162 O23        88.9472   65.5043   32.7869 S1         2 LUT     -0.528210
    163 C24        86.9175   66.5739   33.7000 W6         2 LUT     -0.258361
    164 C25        85.7493   66.4420   34.3971 Z5         2 LUT      0.133546
    165 C26        85.6207   65.4118   35.5709 W8         2 LUT     -0.147008
    166 C27        84.7760   66.0665   36.7300 Z7         2 LUT      0.023843
    167 C28        83.6467   65.5991   37.2983 Z8         2 LUT     -0.216987
    168 C29        82.9506   66.0435   38.5037 Z9         2 LUT      0.206524
    169 C30        81.6889   65.5435   38.8415 Y1         2 LUT     -0.215556
    170 C31        80.9403   65.7630   40.0511 Y2         2 LUT      0.025142
    171 C32        79.6550   65.2899   40.2934 Y3         2 LUT     -0.212209
    172 C33        78.7519   65.4523   41.4128 Y4         2 LUT      0.240937
    173 C34        77.4607   64.9754   41.2201 Y5         2 LUT     -0.218862
    174 C35        76.4128   64.9663   42.2117 Y6         2 LUT     -0.023547
    175 C36        87.8874   65.8606   36.8697 Y7         2 LUT     -0.393485
    176 C37        87.0133   63.4943   36.7909 Y7         2 LUT     -0.393485
    177 C38        84.5562   67.3097   34.1348 Y9         2 LUT     -0.387526
    178 C39        83.7819   66.9937   39.3681 W1         2 LUT     -0.322618
    179 C40        79.0587   66.4975   42.4332 W2         2 LUT     -0.358472
    180 H403       80.1182   66.7783   42.5423 R7         2 LUT      0.097720
    181 H402       78.4712   67.4212   42.1951 R7         2 LUT      0.097720
    182 H401       78.8420   66.0991   43.4421 R7         2 LUT      0.097720
    183 H393       83.2468   67.3726   40.2017 R4         2 LUT      0.082505
    184 H392       84.7132   66.5218   39.7084 R4         2 LUT      0.082505
    185 H391       83.9973   67.9696   38.7883 R4         2 LUT      0.082505
    186 H383       83.7939   66.5715   33.9456 R1         2 LUT      0.104030
    187 H382       84.1842   68.0139   34.9070 R1         2 LUT      0.104030
    188 H381       84.7146   67.8347   33.1923 R1         2 LUT      0.104030
    189 H373       86.2556   63.7695   37.5620 T4         2 LUT      0.089537
    190 H372       86.6630   62.6965   36.1857 T4         2 LUT      0.089537
    191 H371       87.9872   63.2701   37.2320 T4         2 LUT      0.089537
    192 H363       88.7480   65.3675   37.2631 T4         2 LUT      0.089537
    193 H362       88.1069   66.7453   36.2877 T4         2 LUT      0.089537
    194 H361       87.2843   66.1903   37.7306 T4         2 LUT      0.089537
    195 H222       88.9862   64.2017   35.0281 U2         2 LUT      0.127376
    196 H221       87.4448   63.7211   34.1490 U2         2 LUT      0.127376
    197 H203       71.3873   62.8339   41.5308 R7         2 LUT      0.087068
    198 H202       72.8743   63.2184   40.7373 R7         2 LUT      0.087068
    199 H201       72.7906   61.8558   41.7874 R7         2 LUT      0.087068
    200 H193       68.2797   60.9692   44.9182 R4         2 LUT      0.089716
    201 H192       69.6865   60.2726   45.3661 R4         2 LUT      0.089716
    202 H191       68.4683   60.0734   46.4203 R4         2 LUT      0.089716
    203 H183       66.1440   65.2731   48.7238 R1         2 LUT      0.094572
    204 H182       66.6958   63.9072   47.7002 R1         2 LUT      0.094572
    205 H181       65.1059   63.8089   48.3342 R1         2 LUT      0.094572
    206 H173       69.9151   62.4358   51.9088 T4         2 LUT      0.093752
    207 H172       68.5536   63.5948   51.7805 T4         2 LUT      0.093752
    208 H171       68.5789   62.3706   53.0856 T4         2 LUT      0.093752
    209 H163       68.1095   59.7480   50.1504 T4         2 LUT      0.093752
    210 H162       69.7075   60.6124   50.2042 T4         2 LUT      0.093752
    211 H161       69.0624   59.9338   51.6125 T4         2 LUT      0.093752
    212 HO3        65.5677   62.5592   54.0244 Q1         2 LUT      0.300121
    213 H8         69.6162   63.2519   48.1257 U7         2 LUT      0.080784
    214 H7         67.3665   61.3140   47.9293 U6         2 LUT      0.042190
    215 H42        65.0156   64.2708   50.7855 U5         2 LUT      0.145166
    216 H41        66.4500   64.6237   51.5184 U5         2 LUT      0.145166
    217 H35        76.4042   65.6162   43.0583 T3         2 LUT      0.077919
    218 H34        77.1246   64.6423   40.1664 T2         2 LUT      0.073626
    219 H32        79.1821   64.7927   39.4755 T1         2 LUT      0.092510
    220 H31        81.3934   66.3686   40.8854 U9         2 LUT      0.070048
    221 H30        81.1765   64.8094   38.1105 U8         2 LUT      0.085442
    222 H3         64.7185   62.1189   51.8674 U3         2 LUT     -0.031596
    223 H28        83.0969   64.8486   36.7636 U7         2 LUT      0.084728
    224 H27        85.3484   66.8869   37.1295 U6         2 LUT      0.087291
    225 H26        85.1875   64.4650   35.2658 Q6         2 LUT      0.075325
    226 H24        87.0001   67.3328   32.8529 Q5         2 LUT      0.094482
    227 H23        88.9206   66.4104   34.3765 U3         2 LUT     -0.024869
    228 H22        66.0598   60.8458   51.2215 U2         2 LUT      0.127376
    229 H21        66.6769   60.8024   52.6956 U2         2 LUT      0.127376
    230 H15        75.2259   63.7359   41.2218 T3         2 LUT      0.093200
    231 H14        74.3531   64.9677   43.7581 T2         2 LUT      0.068865
    232 H12        72.4231   64.3215   44.8630 T1         2 LUT      0.095507
    233 H11        70.6780   62.0424   43.8227 U9         2 LUT      0.068930
    234 H10        70.9571   63.5455   46.3820 U8         2 LUT      0.083911
    235 H1         88.6399   64.8053   32.1660 Q1         2 LUT      0.297311
@<TRIPOS>BOND
    1     6     1 1
    2     7     2 1
    3     8     3 1
    4     9     4 1
    5    11     4 1
    6    12     6 1
    7    13     9 1
    8    16     9 1
    9    25     5 1
   10    25    16 1
   11    26    10 1
   12    26    17 1
   13    27    18 1
   14    28    14 1
   15    28    19 1
   16    29    12 1
   17    30    13 1
   18    31    24 1
   19    32     1 1
   20    32    25 1
   21    33    21 1
   22    33    26 1
   23    34    22 1
   24    34    27 1
   25    35    23 1
   26    35    28 1
   27    36    12 1
   28    36    24 1
   29    37    13 1
   30    37    15 1
   31    38    31 1
   32    39    20 1
   33    39    32 1
   34    40     2 1
   35    40    33 1
   36    41     3 1
   37    41    34 1
   38    42     4 1
   39    42    35 1
   40    43    38 1
   41    44     5 1
   42    44    17 1
   43    44    39 1
   44    45    10 1
   45    45    18 1
   46    45    40 1
   47    46    19 1
   48    46    41 1
   49    47    14 1
   50    47    16 1
   51    47    42 1
   52    48    38 1
   53    49    48 1
   54    50    49 1
   55    51    50 1
   56    52    51 1
   57    53    51 1
   58    54    53 1
   59    55    54 1
   60    56    55 1
   61    57    56 1
   62    58    56 1
   63    59    58 1
   64    60    59 1
   65    61    60 1
   66    62    61 1
   67    63    61 1
   68    64    27 1
   69    64    46 1
   70    65     5 1
   71    65    10 1
   72    65    64 1
   73    65    14 1
   74    66    23 1
   75    67    23 1
   76    68    23 1
   77    69    22 1
   78    70    22 1
   79    71    22 1
   80    72    21 1
   81    73    21 1
   82    74    21 1
   83    75    20 1
   84    76    20 1
   85    77    20 1
   86    78    15 1
   87    79    15 1
   88    80    15 1
   89    81     8 1
   90    82     8 1
   91    83     8 1
   92    84     7 1
   93    85     7 1
   94    86     6 1
   95    87     6 1
   96    88     3 1
   97    89     3 1
   98    90     1 1
   99    91     1 1
  100    92    63 1
  101    93    63 1
  102    94    63 1
  103    95    62 1
  104    96    62 1
  105    97    62 1
  106    98    60 1
  107    99    60 1
  108   100    59 1
  109   101    59 1
  110   102    58 1
  111   103    58 1
  112   104    57 1
  113   105    57 1
  114   106    57 1
  115   107    55 1
  116   108    55 1
  117   109    54 1
  118   110    54 1
  119   111    53 1
  120   112    53 1
  121   113    19 1
  122   114    18 1
  123   115    17 1
  124   116     9 1
  125   117     2 1
  126   118    52 1
  127   119    52 1
  128   120    52 1
  129   121    51 1
  130   122    50 1
  131   123    50 1
  132   124    49 1
  133   125    49 1
  134   126    48 1
  135   127    48 1
  136   128    43 1
  137   129    43 1
  138   130    43 1
  139   131    39 1
  140   132    32 1
  141   133    31 1
  142   134    61 1
  143   135    56 1
  144   136    24 1
  145   137    24 1
  146   139   138 1
  147   140   139 1
  148   141   140 1
  149   142   140 1
  150   143   142 1
  151   144   138 1
  152   144   143 1
  153   145   144 1
  154   146   145 1
  155   147   146 1
  156   148   147 1
  157   149   148 1
  158   150   149 1
  159   151   150 1
  160   152   151 1
  161   153   152 1
  162   154   138 1
  163   155   138 1
  164   156   143 1
  165   157   147 1
  166   158   151 1
  167   160   159 1
  168   161   160 1
  169   162   161 1
  170   163   161 1
  171   164   163 1
  172   165   159 1
  173   165   164 1
  174   166   165 1
  175   167   166 1
  176   168   167 1
  177   169   168 1
  178   170   169 1
  179   171   170 1
  180   172   171 1
  181   173   172 1
  182   174   153 1
  183   174   173 1
  184   175   159 1
  185   176   159 1
  186   177   164 1
  187   178   168 1
  188   179   172 1
  189   180   179 1
  190   181   179 1
  191   182   179 1
  192   183   178 1
  193   184   178 1
  194   185   178 1
  195   186   177 1
  196   187   177 1
  197   188   177 1
  198   189   176 1
  199   190   176 1
  200   191   176 1
  201   192   175 1
  202   193   175 1
  203   194   175 1
  204   195   160 1
  205   196   160 1
  206   197   158 1
  207   198   158 1
  208   199   158 1
  209   200   157 1
  210   201   157 1
  211   202   157 1
  212   203   156 1
  213   204   156 1
  214   205   156 1
  215   206   155 1
  216   207   155 1
  217   208   155 1
  218   209   154 1
  219   210   154 1
  220   211   154 1
  221   212   141 1
  222   213   146 1
  223   214   145 1
  224   215   142 1
  225   216   142 1
  226   217   174 1
  227   218   173 1
  228   219   171 1
  229   220   170 1
  230   221   169 1
  231   222   140 1
  232   223   167 1
  233   224   166 1
  234   225   165 1
  235   226   163 1
  236   227   161 1
  237   228   139 1
  238   229   139 1
  239   230   153 1
  240   231   152 1
  241   232   150 1
  242   233   149 1
  243   234   148 1
  244   235   162 1
  245   65    153 1
  246   65    174 1
@<TRIPOS>SUBSTRUCTURE
      1 CLA               1 ****               0 ****  **** 
      2 LUT             138 ****               0 ****  **** 
