@<TRIPOS>MOLECULE
Cpptraj generated mol2 file.
  235   246     2     0     0
SMALL
USER_CHARGES


@<TRIPOS>ATOM
      1 CAA        77.6591   57.6502   34.7676 a2         1 CLA     -0.055900
      2 CAB        77.0324   61.4829   43.9044 c8         1 CLA     -0.148500
      3 CAC        70.4177   56.9297   43.0079 a2         1 CLA     -0.012600
      4 CAD        73.6956   54.7788   36.0193 ck         1 CLA      0.398800
      5 NA         76.3249   58.2091   38.0496 ns         1 CLA     -0.225500
      6 CBA        78.9150   57.6896   33.9517 a2         1 CLA     -0.135000
      7 CBB        78.2170   61.6294   44.5667 c0         1 CLA     -0.395200
      8 CBC        70.9685   55.4900   43.4150 a3         1 CLA     -0.037700
      9 CBD        75.1764   55.2835   35.8049 a1         1 CLA     -0.053900
     10 NB         75.9023   59.7684   40.7097 nm         1 CLA     -0.295700
     11 OBD        73.2230   53.9330   35.2577 o2         1 CLA     -0.494600
     12 CGA        79.5134   56.2746   33.7247 c4         1 CLA      0.827000
     13 CGD        76.2545   54.1723   36.0195 c4         1 CLA      0.655300
     14 ND         73.6690   57.0077   38.6984 nm         1 CLA     -0.291600
     15 CED        77.2565   52.6864   37.7353 a3         1 CLA      0.005400
     16 CHA        75.3063   56.4170   36.8267 cs         1 CLA     -0.123800
     17 CHB        77.7739   59.8739   39.0868 aa         1 CLA     -0.291900
     18 CHC        74.6835   59.6994   42.7458 aa         1 CLA     -0.090400
     19 CHD        71.7256   56.7948   40.2640 aa         1 CLA     -0.052000
     20 CMA        79.7000   57.6286   37.9900 a3         1 CLA     -0.230700
     21 CMB        78.9706   61.7890   41.1558 a3         1 CLA     -0.180800
     22 CMC        72.4532   58.9365   44.7774 a3         1 CLA     -0.134000
     23 CMD        70.8839   54.6037   38.1259 a3         1 CLA     -0.141100
     24 C1         80.5614   54.4101   34.8839 a2         1 CLA      0.023000
     25 C1A        76.3255   57.3230   37.0080 ac         1 CLA     -0.015100
     26 C1B        77.1529   60.2083   40.3539 cr         1 CLA      0.054700
     27 C1C        73.5904   58.8799   42.4111 cn         1 CLA     -0.005600
     28 C1D        72.4368   56.4608   39.1140 ap         1 CLA     -0.047300
     29 O1A        79.3872   55.5886   32.7381 o2         1 CLA     -0.610800
     30 O1D        77.2592   54.0658   35.3011 o2         1 CLA     -0.558200
     31 C2         81.2433   54.2302   36.2523 c8         1 CLA     -0.325100
     32 C2A        77.7264   57.2854   36.3055 a1         1 CLA      0.098600
     33 C2B        77.7353   61.0755   41.3645 cb         1 CLA      0.088500
     34 C2C        72.4827   58.5064   43.3146 cb         1 CLA      0.053700
     35 C2D        72.1223   55.3673   38.1183 cb         1 CLA      0.058900
     36 O2A        80.1318   55.8609   34.9171 o1         1 CLA     -0.437200
     37 O2D        76.0663   53.4547   37.2259 o1         1 CLA     -0.357600
     38 C3         82.1364   53.2592   36.5174 c5         1 CLA      0.031200
     39 C3A        78.5500   58.2919   37.1794 a1         1 CLA      0.166800
     40 C3B        76.8939   60.9402   42.4645 cb         1 CLA      0.035000
     41 C3C        71.6204   57.7565   42.5478 cb         1 CLA     -0.089900
     42 C3D        73.2005   55.3219   37.2222 cb         1 CLA     -0.035900
     43 C4         81.7043   51.8662   36.9599 a3         1 CLA     -0.053300
     44 C4A        77.4724   58.8210   38.1943 ac         1 CLA      0.001800
     45 C4B        75.7469   60.1367   41.9989 cn         1 CLA     -0.020900
     46 C4C        72.2020   57.6762   41.2452 cr         1 CLA     -0.044400
     47 C4D        74.1239   56.3486   37.5565 c6         1 CLA     -0.046000
     48 C5         83.6005   53.3787   36.1076 a2         1 CLA     -0.070400
     49 C6         84.3983   54.6123   36.4849 a2         1 CLA      0.043900
     50 C7         84.4166   54.9320   38.0197 a2         1 CLA     -0.150000
     51 C8         84.9640   56.3743   38.2413 a1         1 CLA      0.064200
     52 C9         86.5452   56.4996   37.8590 a3         1 CLA     -0.259300
     53 C10        84.6316   56.9323   39.6595 a2         1 CLA     -0.071900
     54 C11        83.2131   56.9011   40.1742 a2         1 CLA      0.014500
     55 C12        83.1578   57.7856   41.4944 a2         1 CLA     -0.112100
     56 C13        84.0469   57.3277   42.6630 a1         1 CLA      0.089200
     57 C14        83.8566   55.9350   43.2907 a3         1 CLA     -0.239100
     58 C15        84.0189   58.3325   43.8388 a2         1 CLA     -0.102200
     59 C16        82.6278   58.6278   44.4107 a2         1 CLA      0.023900
     60 C17        82.6233   59.5199   45.6690 a2         1 CLA     -0.105700
     61 C18        81.3539   60.3216   45.8877 a1         1 CLA      0.206800
     62 C19        80.1456   59.3880   46.0869 a3         1 CLA     -0.280100
     63 C20        81.5210   61.2584   47.2321 a3         1 CLA     -0.280100
     64 NC         73.3120   58.4413   41.1594 nx         1 CLA     -0.309200
     65 MG         74.7155   58.4932   39.5669 mg         1 CLA      0.895000
     66 HMD3       70.9070   54.1902   37.1292 dc         1 CLA      0.064300
     67 HMD2       70.9334   53.9207   38.9458 dc         1 CLA      0.064300
     68 HMD1       70.0181   55.2625   38.2713 dc         1 CLA      0.064300
     69 HMC3       73.3489   58.5625   45.3167 dc         1 CLA      0.052100
     70 HMC2       72.4609   60.0038   44.8628 dc         1 CLA      0.052100
     71 HMC1       71.5823   58.5739   45.2890 dc         1 CLA      0.052100
     72 HMB3       79.7679   61.0993   40.8850 dc         1 CLA      0.063600
     73 HMB2       78.7822   62.2373   40.1818 dc         1 CLA      0.063600
     74 HMB1       79.2497   62.5690   41.9053 dc         1 CLA      0.063600
     75 HMA3       79.3856   56.8153   38.6290 dc         1 CLA      0.058300
     76 HMA2       80.4513   57.1896   37.3133 dc         1 CLA      0.058300
     77 HMA1       80.2179   58.3386   38.6425 dc         1 CLA      0.058300
     78 HED3       77.6034   51.7800   37.1617 dc         1 CLA      0.079300
     79 HED2       78.1174   53.3045   37.8679 dc         1 CLA      0.079300
     80 HED1       76.9176   52.2477   38.6051 dc         1 CLA      0.079300
     81 HBC3       71.8237   55.6770   44.1204 dc         1 CLA      0.016300
     82 HBC2       70.1574   55.0894   44.0184 dc         1 CLA      0.016300
     83 HBC1       71.3439   54.9262   42.5887 dc         1 CLA      0.016300
     84 HBB2       78.4119   61.9838   45.6024 da         1 CLA      0.183000
     85 HBB1       79.0832   61.4129   43.9863 da         1 CLA      0.183000
     86 HBA2       78.5373   58.0817   33.0104 dc         1 CLA      0.029400
     87 HBA1       79.6661   58.3941   34.3720 dc         1 CLA      0.029400
     88 HAC2       70.0139   57.2836   43.9166 dc         1 CLA      0.029300
     89 HAC1       69.6593   57.0026   42.2217 dc         1 CLA      0.029300
     90 HAA2       77.0357   56.8861   34.2945 dc         1 CLA      0.028700
     91 HAA1       77.1130   58.6324   34.6130 dc         1 CLA      0.028700
     92 H203       81.8818   60.7637   48.0662 dc         1 CLA      0.065600
     93 H202       82.1762   62.0397   46.8687 dc         1 CLA      0.065600
     94 H201       80.5587   61.6424   47.4382 dc         1 CLA      0.065600
     95 H193       80.2381   58.6349   46.9009 dc         1 CLA      0.065600
     96 H192       79.1906   59.8828   46.2104 dc         1 CLA      0.065600
     97 H191       80.0933   58.8462   45.1346 dc         1 CLA      0.065600
     98 H172       82.9112   58.9056   46.4380 dc         1 CLA      0.027600
     99 H171       83.4878   60.1880   45.5922 dc         1 CLA      0.027600
    100 H162       82.1905   59.3269   43.6981 dc         1 CLA      0.002900
    101 H161       81.9426   57.8271   44.7474 dc         1 CLA      0.002900
    102 H152       84.5620   57.8361   44.6559 dc         1 CLA      0.029100
    103 H151       84.5082   59.3057   43.6109 dc         1 CLA      0.029100
    104 H143       84.5762   55.6497   44.0629 dc         1 CLA      0.063600
    105 H142       82.8573   55.9772   43.7152 dc         1 CLA      0.063600
    106 H141       83.7492   55.2219   42.4508 dc         1 CLA      0.063600
    107 H122       83.4979   58.7562   41.2444 dc         1 CLA      0.032500
    108 H121       82.0800   57.7842   41.7819 dc         1 CLA      0.032500
    109 H112       82.5777   57.4645   39.4846 dc         1 CLA      0.006600
    110 H111       82.8392   55.9562   40.4702 dc         1 CLA      0.006600
    111 H102       85.2391   56.4200   40.4152 dc         1 CLA      0.024100
    112 H101       84.9913   57.9390   39.6923 dc         1 CLA      0.024100
    113 HHD        70.7506   56.3652   40.3329 da         1 CLA      0.174300
    114 HHC        74.8333   60.0781   43.7866 da         1 CLA      0.136800
    115 HHB        78.7960   60.2375   38.9999 da         1 CLA      0.138300
    116 HBD        75.2449   55.7027   34.8588 dc         1 CLA      0.107700
    117 HAB        76.1015   61.7311   44.4217 da         1 CLA      0.155200
    118 H93        87.0319   57.3987   38.1521 dc         1 CLA      0.069500
    119 H92        87.0877   55.8365   38.5067 dc         1 CLA      0.069500
    120 H91        86.6836   56.1443   36.8557 dc         1 CLA      0.069500
    121 H8         84.4514   57.0143   37.5891 dc         1 CLA      0.029300
    122 H72        83.3516   55.0368   38.3113 dc         1 CLA      0.044400
    123 H71        84.8571   54.1241   38.5623 dc         1 CLA      0.044400
    124 H62        85.3327   54.4972   35.9819 dc         1 CLA      0.015600
    125 H61        83.7736   55.3995   36.0682 dc         1 CLA      0.015600
    126 H52        84.0567   52.5835   36.7189 dc         1 CLA      0.033200
    127 H51        83.7620   53.2258   35.0362 dc         1 CLA      0.033200
    128 H43        82.0238   51.1821   36.0985 dc         1 CLA      0.037000
    129 H42        82.3754   51.6157   37.7741 dc         1 CLA      0.037000
    130 H41        80.6062   51.7490   37.0563 dc         1 CLA      0.037000
    131 H3A        78.8764   59.1221   36.5816 dc         1 CLA      0.041100
    132 H2A        78.1280   56.2448   36.3088 dc         1 CLA      0.083100
    133 H2         80.8993   54.8185   37.0763 da         1 CLA      0.180900
    134 H18        81.2220   60.9907   45.0290 dc         1 CLA     -0.003900
    135 H13        85.0160   57.3384   42.2759 dc         1 CLA      0.019700
    136 H12        79.7143   53.8129   34.8238 dc         1 CLA      0.120400
    137 H11        81.2265   54.2561   34.0557 dc         1 CLA      0.120400
    138 C1         67.5306   61.0604   49.9201 Z1         2 LUT      0.509236
    139 C2         66.1187   61.0066   50.5059 Z2         2 LUT     -0.434695
    140 C3         65.4205   62.4052   50.7975 Z3         2 LUT      0.437453
    141 O3         65.5855   62.8612   52.1478 S1         2 LUT     -0.547129
    142 C4         65.9702   63.4614   49.8057 Z4         2 LUT     -0.468603
    143 C5         66.8195   63.0563   48.5888 Z5         2 LUT      0.279246
    144 C6         67.5583   61.9406   48.6195 Z6         2 LUT     -0.305473
    145 C7         68.0042   61.2905   47.3645 Z7         2 LUT      0.069402
    146 C8         68.7552   61.8661   46.3798 Z8         2 LUT     -0.191631
    147 C9         69.2617   61.5156   45.1363 Z9         2 LUT      0.196698
    148 C10        70.3560   62.2728   44.6781 Y1         2 LUT     -0.208611
    149 C11        71.1322   62.0761   43.4472 Y2         2 LUT      0.030784
    150 C12        72.1340   62.9980   43.3027 Y3         2 LUT     -0.220316
    151 C13        73.1260   63.0389   42.3348 Y4         2 LUT      0.215937
    152 C14        74.2692   63.7937   42.5372 Y5         2 LUT     -0.185793
    153 C15        75.4062   63.8657   41.6346 Y6         2 LUT     -0.057835
    154 C16        67.8498   59.5613   49.9729 Y7         2 LUT     -0.405615
    155 C17        68.4490   61.7862   51.0061 Y7         2 LUT     -0.405615
    156 C18        66.2501   63.7084   47.3241 Y9         2 LUT     -0.369639
    157 C19        68.7257   60.3008   44.3537 W1         2 LUT     -0.333362
    158 C20        72.7620   62.4088   41.0054 W2         2 LUT     -0.323439
    159 C21        86.2833   64.7874   35.1403 Z1         2 LUT      0.406104
    160 C22        87.0971   64.3531   33.9184 Z2         2 LUT     -0.404965
    161 C23        87.3838   65.3530   32.8464 Z3         2 LUT      0.391255
    162 O23        88.2095   64.7176   31.8059 S1         2 LUT     -0.528210
    163 C24        86.0941   66.1139   32.5174 W6         2 LUT     -0.258361
    164 C25        85.0003   66.2612   33.2503 Z5         2 LUT      0.133546
    165 C26        84.9526   65.4833   34.6630 W8         2 LUT     -0.147008
    166 C27        84.2709   66.2731   35.7805 Z7         2 LUT      0.023843
    167 C28        83.3289   65.8435   36.6536 Z8         2 LUT     -0.216987
    168 C29        82.7429   66.4445   37.8943 Z9         2 LUT      0.206524
    169 C30        81.6591   65.8103   38.4942 Y1         2 LUT     -0.215556
    170 C31        80.8801   66.0471   39.6688 Y2         2 LUT      0.025142
    171 C32        79.8006   65.2831   40.0044 Y3         2 LUT     -0.212209
    172 C33        78.8080   65.4300   41.0552 Y4         2 LUT      0.240937
    173 C34        77.6879   64.6462   40.9766 Y5         2 LUT     -0.218862
    174 C35        76.5742   64.5654   41.8760 Y6         2 LUT     -0.023547
    175 C36        87.1468   65.8326   35.7939 Y7         2 LUT     -0.393485
    176 C37        86.0577   63.4614   35.9003 Y7         2 LUT     -0.393485
    177 C38        83.8118   67.1734   32.8939 Y9         2 LUT     -0.387526
    178 C39        83.2495   67.7428   38.5820 W1         2 LUT     -0.322618
    179 C40        78.8658   66.6674   41.9288 W2         2 LUT     -0.358472
    180 H403       78.4531   67.5788   41.4536 R7         2 LUT      0.097720
    181 H402       78.2878   66.5166   42.7348 R7         2 LUT      0.097720
    182 H401       79.8374   66.8901   42.2759 R7         2 LUT      0.097720
    183 H393       83.8595   68.3670   37.8968 R4         2 LUT      0.082505
    184 H392       82.4556   68.2811   39.0500 R4         2 LUT      0.082505
    185 H391       83.8604   67.6009   39.4152 R4         2 LUT      0.082505
    186 H383       83.3286   66.6908   32.0604 R1         2 LUT      0.104030
    187 H382       83.1475   67.3045   33.6565 R1         2 LUT      0.104030
    188 H381       84.1506   68.1399   32.5001 R1         2 LUT      0.104030
    189 H373       85.3711   63.4748   36.7330 T4         2 LUT      0.089537
    190 H372       85.8342   62.5883   35.2967 T4         2 LUT      0.089537
    191 H371       86.9370   63.0467   36.4175 T4         2 LUT      0.089537
    192 H363       88.0757   65.3255   36.0205 T4         2 LUT      0.089537
    193 H362       87.2427   66.7465   35.2027 T4         2 LUT      0.089537
    194 H361       86.5859   66.1404   36.6824 T4         2 LUT      0.089537
    195 H222       88.0569   63.8126   34.0943 U2         2 LUT      0.127376
    196 H221       86.5585   63.5265   33.4794 U2         2 LUT      0.127376
    197 H203       71.6619   62.3785   40.8740 R7         2 LUT      0.087068
    198 H202       73.1505   63.0234   40.2023 R7         2 LUT      0.087068
    199 H201       73.0751   61.3522   40.9355 R7         2 LUT      0.087068
    200 H193       68.0494   60.7549   43.6219 R4         2 LUT      0.089716
    201 H192       69.5232   59.7610   43.8591 R4         2 LUT      0.089716
    202 H191       68.0824   59.5802   44.9134 R4         2 LUT      0.089716
    203 H183       65.2699   64.2452   47.5329 R1         2 LUT      0.094572
    204 H182       66.9364   64.4764   46.8944 R1         2 LUT      0.094572
    205 H181       65.9783   62.8738   46.5830 R1         2 LUT      0.094572
    206 H173       68.2140   61.6078   52.0619 T4         2 LUT      0.093752
    207 H172       69.5376   61.5590   50.9159 T4         2 LUT      0.093752
    208 H171       68.4998   62.8951   50.9300 T4         2 LUT      0.093752
    209 H163       67.5575   59.0370   50.9091 T4         2 LUT      0.093752
    210 H162       67.4711   59.0684   49.1226 T4         2 LUT      0.093752
    211 H161       68.8904   59.3485   49.9148 T4         2 LUT      0.093752
    212 HO3        65.3130   62.2098   52.7880 Q1         2 LUT      0.300121
    213 H8         69.1168   62.8943   46.6227 U7         2 LUT      0.080784
    214 H7         67.7267   60.3026   47.1178 U6         2 LUT      0.042190
    215 H42        64.9764   63.9386   49.5425 U5         2 LUT      0.145166
    216 H41        66.5446   64.1502   50.3342 U5         2 LUT      0.145166
    217 H35        76.6808   64.9905   42.8781 T3         2 LUT      0.077919
    218 H34        77.5823   63.9637   40.1728 T2         2 LUT      0.073626
    219 H32        79.6724   64.4145   39.2639 T1         2 LUT      0.092510
    220 H31        81.1144   66.9122   40.2605 U9         2 LUT      0.070048
    221 H30        81.3959   64.9678   37.8436 U8         2 LUT      0.085442
    222 H3         64.3336   62.2781   50.7433 U3         2 LUT     -0.031596
    223 H28        82.9118   64.9387   36.2623 U7         2 LUT      0.084728
    224 H27        84.7243   67.2539   35.8884 U6         2 LUT      0.087291
    225 H26        84.3401   64.6154   34.4360 Q6         2 LUT      0.075325
    226 H24        86.0387   66.5841   31.5192 Q5         2 LUT      0.094482
    227 H23        88.0802   66.0528   33.3316 U3         2 LUT     -0.024869
    228 H22        65.5161   60.6401   49.6508 U2         2 LUT      0.127376
    229 H21        65.9439   60.1976   51.2585 U2         2 LUT      0.127376
    230 H15        75.4017   63.3502   40.7114 T3         2 LUT      0.093200
    231 H14        74.3305   64.1903   43.5261 T2         2 LUT      0.068865
    232 H12        72.2536   63.6130   44.0823 T1         2 LUT      0.095507
    233 H11        71.0909   61.2444   42.7436 U9         2 LUT      0.068930
    234 H10        70.6891   63.0820   45.3543 U8         2 LUT      0.083911
    235 H1         87.6376   64.5313   31.0533 Q1         2 LUT      0.297311
@<TRIPOS>BOND
    1     6     1 1
    2     7     2 1
    3     8     3 1
    4     9     4 1
    5    11     4 1
    6    12     6 1
    7    13     9 1
    8    16     9 1
    9    25     5 1
   10    25    16 1
   11    26    10 1
   12    26    17 1
   13    27    18 1
   14    28    14 1
   15    28    19 1
   16    29    12 1
   17    30    13 1
   18    31    24 1
   19    32     1 1
   20    32    25 1
   21    33    21 1
   22    33    26 1
   23    34    22 1
   24    34    27 1
   25    35    23 1
   26    35    28 1
   27    36    12 1
   28    36    24 1
   29    37    13 1
   30    37    15 1
   31    38    31 1
   32    39    20 1
   33    39    32 1
   34    40     2 1
   35    40    33 1
   36    41     3 1
   37    41    34 1
   38    42     4 1
   39    42    35 1
   40    43    38 1
   41    44     5 1
   42    44    17 1
   43    44    39 1
   44    45    10 1
   45    45    18 1
   46    45    40 1
   47    46    19 1
   48    46    41 1
   49    47    14 1
   50    47    16 1
   51    47    42 1
   52    48    38 1
   53    49    48 1
   54    50    49 1
   55    51    50 1
   56    52    51 1
   57    53    51 1
   58    54    53 1
   59    55    54 1
   60    56    55 1
   61    57    56 1
   62    58    56 1
   63    59    58 1
   64    60    59 1
   65    61    60 1
   66    62    61 1
   67    63    61 1
   68    64    27 1
   69    64    46 1
   70    65     5 1
   71    65    10 1
   72    65    64 1
   73    65    14 1
   74    66    23 1
   75    67    23 1
   76    68    23 1
   77    69    22 1
   78    70    22 1
   79    71    22 1
   80    72    21 1
   81    73    21 1
   82    74    21 1
   83    75    20 1
   84    76    20 1
   85    77    20 1
   86    78    15 1
   87    79    15 1
   88    80    15 1
   89    81     8 1
   90    82     8 1
   91    83     8 1
   92    84     7 1
   93    85     7 1
   94    86     6 1
   95    87     6 1
   96    88     3 1
   97    89     3 1
   98    90     1 1
   99    91     1 1
  100    92    63 1
  101    93    63 1
  102    94    63 1
  103    95    62 1
  104    96    62 1
  105    97    62 1
  106    98    60 1
  107    99    60 1
  108   100    59 1
  109   101    59 1
  110   102    58 1
  111   103    58 1
  112   104    57 1
  113   105    57 1
  114   106    57 1
  115   107    55 1
  116   108    55 1
  117   109    54 1
  118   110    54 1
  119   111    53 1
  120   112    53 1
  121   113    19 1
  122   114    18 1
  123   115    17 1
  124   116     9 1
  125   117     2 1
  126   118    52 1
  127   119    52 1
  128   120    52 1
  129   121    51 1
  130   122    50 1
  131   123    50 1
  132   124    49 1
  133   125    49 1
  134   126    48 1
  135   127    48 1
  136   128    43 1
  137   129    43 1
  138   130    43 1
  139   131    39 1
  140   132    32 1
  141   133    31 1
  142   134    61 1
  143   135    56 1
  144   136    24 1
  145   137    24 1
  146   139   138 1
  147   140   139 1
  148   141   140 1
  149   142   140 1
  150   143   142 1
  151   144   138 1
  152   144   143 1
  153   145   144 1
  154   146   145 1
  155   147   146 1
  156   148   147 1
  157   149   148 1
  158   150   149 1
  159   151   150 1
  160   152   151 1
  161   153   152 1
  162   154   138 1
  163   155   138 1
  164   156   143 1
  165   157   147 1
  166   158   151 1
  167   160   159 1
  168   161   160 1
  169   162   161 1
  170   163   161 1
  171   164   163 1
  172   165   159 1
  173   165   164 1
  174   166   165 1
  175   167   166 1
  176   168   167 1
  177   169   168 1
  178   170   169 1
  179   171   170 1
  180   172   171 1
  181   173   172 1
  182   174   153 1
  183   174   173 1
  184   175   159 1
  185   176   159 1
  186   177   164 1
  187   178   168 1
  188   179   172 1
  189   180   179 1
  190   181   179 1
  191   182   179 1
  192   183   178 1
  193   184   178 1
  194   185   178 1
  195   186   177 1
  196   187   177 1
  197   188   177 1
  198   189   176 1
  199   190   176 1
  200   191   176 1
  201   192   175 1
  202   193   175 1
  203   194   175 1
  204   195   160 1
  205   196   160 1
  206   197   158 1
  207   198   158 1
  208   199   158 1
  209   200   157 1
  210   201   157 1
  211   202   157 1
  212   203   156 1
  213   204   156 1
  214   205   156 1
  215   206   155 1
  216   207   155 1
  217   208   155 1
  218   209   154 1
  219   210   154 1
  220   211   154 1
  221   212   141 1
  222   213   146 1
  223   214   145 1
  224   215   142 1
  225   216   142 1
  226   217   174 1
  227   218   173 1
  228   219   171 1
  229   220   170 1
  230   221   169 1
  231   222   140 1
  232   223   167 1
  233   224   166 1
  234   225   165 1
  235   226   163 1
  236   227   161 1
  237   228   139 1
  238   229   139 1
  239   230   153 1
  240   231   152 1
  241   232   150 1
  242   233   149 1
  243   234   148 1
  244   235   162 1
  245   65    153 1
  246   65    174 1
@<TRIPOS>SUBSTRUCTURE
      1 CLA               1 ****               0 ****  **** 
      2 LUT             138 ****               0 ****  **** 
