@<TRIPOS>MOLECULE
Cpptraj generated mol2 file.
  235   246     2     0     0
SMALL
USER_CHARGES


@<TRIPOS>ATOM
      1 CAA        79.6017   57.1346   34.4098 a2         1 CLA     -0.055900
      2 CAB        79.5022   61.4444   43.2369 c8         1 CLA     -0.148500
      3 CAC        72.6151   57.3178   42.6409 a2         1 CLA     -0.012600
      4 CAD        75.5311   54.5695   35.6803 ck         1 CLA      0.398800
      5 NA         78.6548   57.7263   37.6833 ns         1 CLA     -0.225500
      6 CBA        80.8360   56.9787   33.4420 a2         1 CLA     -0.135000
      7 CBB        80.6174   61.5731   44.0088 c0         1 CLA     -0.395200
      8 CBC        72.6633   55.7742   42.5911 a3         1 CLA     -0.037700
      9 CBD        77.0465   54.9179   35.4915 a1         1 CLA     -0.053900
     10 NB         78.4833   59.2970   40.2653 nm         1 CLA     -0.295700
     11 OBD        74.9434   53.7357   34.9955 o2         1 CLA     -0.494600
     12 CGA        81.1702   55.5228   33.0865 c4         1 CLA      0.827000
     13 CGD        77.7237   53.5852   35.8165 c4         1 CLA      0.655300
     14 ND         75.8654   56.9144   38.2134 nm         1 CLA     -0.291600
     15 CED        77.8836   51.6760   37.2961 a3         1 CLA      0.005400
     16 CHA        77.3784   56.0449   36.4607 cs         1 CLA     -0.123800
     17 CHB        80.3712   59.1141   38.6991 aa         1 CLA     -0.291900
     18 CHC        77.0717   59.6929   42.2247 aa         1 CLA     -0.090400
     19 CHD        73.9028   57.1384   39.5812 aa         1 CLA     -0.052000
     20 CMA        82.1064   57.0069   37.2519 a3         1 CLA     -0.230700
     21 CMB        82.0092   60.6848   41.0337 a3         1 CLA     -0.180800
     22 CMC        74.7267   59.2726   44.2420 a3         1 CLA     -0.134000
     23 CMD        72.5693   55.0910   37.5858 a3         1 CLA     -0.141100
     24 C1         81.8436   53.4548   33.9367 a2         1 CLA      0.023000
     25 C1A        78.5288   56.7842   36.6678 ac         1 CLA     -0.015100
     26 C1B        79.7582   59.6480   39.8598 cr         1 CLA      0.054700
     27 C1C        75.8912   59.0355   41.9459 cn         1 CLA     -0.005600
     28 C1D        74.5620   56.6426   38.4916 ap         1 CLA     -0.047300
     29 O1A        80.7271   54.8838   32.1286 o2         1 CLA     -0.610800
     30 O1D        78.5213   53.0863   35.0508 o2         1 CLA     -0.558200
     31 C2         82.3889   52.9117   35.1452 c8         1 CLA     -0.325100
     32 C2A        79.8388   56.7261   35.9011 a1         1 CLA      0.098600
     33 C2B        80.4314   60.3096   41.0003 cb         1 CLA      0.088500
     34 C2C        74.7815   58.7915   42.8387 cb         1 CLA      0.053700
     35 C2D        73.9738   55.7331   37.5563 cb         1 CLA      0.058900
     36 O2A        81.8406   54.9053   34.1014 o1         1 CLA     -0.437200
     37 O2D        77.3482   53.0406   37.0099 o1         1 CLA     -0.357600
     38 C3         83.4993   52.1611   35.2542 c5         1 CLA      0.031200
     39 C3A        80.8474   57.6734   36.7065 a1         1 CLA      0.166800
     40 C3B        79.4463   60.6325   41.9899 cb         1 CLA      0.035000
     41 C3C        73.8968   57.9615   42.1286 cb         1 CLA     -0.089900
     42 C3D        75.1173   55.4080   36.7892 cb         1 CLA     -0.035900
     43 C4         83.6824   50.7095   34.7949 a3         1 CLA     -0.053300
     44 C4A        79.9109   58.2131   37.7309 ac         1 CLA      0.001800
     45 C4B        78.2520   59.8887   41.5466 cn         1 CLA     -0.020900
     46 C4C        74.4080   57.7971   40.7624 cr         1 CLA     -0.044400
     47 C4D        76.1759   56.1763   37.1825 c6         1 CLA     -0.046000
     48 C5         84.9156   52.7261   35.6330 a2         1 CLA     -0.070400
     49 C6         85.0770   53.7419   36.8108 a2         1 CLA      0.043900
     50 C7         86.5544   54.2405   36.8821 a2         1 CLA     -0.150000
     51 C8         86.8927   55.1577   38.0273 a1         1 CLA      0.064200
     52 C9         86.2179   56.5662   37.7943 a3         1 CLA     -0.259300
     53 C10        88.4423   55.3686   38.2574 a2         1 CLA     -0.071900
     54 C11        88.7452   56.0630   39.5240 a2         1 CLA      0.014500
     55 C12        88.6104   55.0800   40.7143 a2         1 CLA     -0.112100
     56 C13        88.6839   55.6229   42.2232 a1         1 CLA      0.089200
     57 C14        88.8466   54.4115   43.1894 a3         1 CLA     -0.239100
     58 C15        87.4447   56.6034   42.5163 a2         1 CLA     -0.102200
     59 C16        87.4224   57.1062   43.9494 a2         1 CLA      0.023900
     60 C17        86.1710   58.0605   44.1781 a2         1 CLA     -0.105700
     61 C18        84.8425   57.4878   44.6888 a1         1 CLA      0.206800
     62 C19        84.9179   56.8174   46.0692 a3         1 CLA     -0.280100
     63 C20        83.7642   58.6007   44.6976 a3         1 CLA     -0.280100
     64 NC         75.6946   58.3567   40.7482 nx         1 CLA     -0.309200
     65 MG         77.1768   58.1692   39.1653 mg         1 CLA      0.895000
     66 HMD3       72.3384   54.5432   36.6652 dc         1 CLA      0.064300
     67 HMD2       72.5103   54.3513   38.3949 dc         1 CLA      0.064300
     68 HMD1       71.7754   55.8408   37.7858 dc         1 CLA      0.064300
     69 HMC3       73.7042   59.3649   44.5107 dc         1 CLA      0.052100
     70 HMC2       75.2495   58.4724   44.8131 dc         1 CLA      0.052100
     71 HMC1       75.2363   60.2230   44.3235 dc         1 CLA      0.052100
     72 HMB3       82.5607   60.2640   41.8814 dc         1 CLA      0.063600
     73 HMB2       82.6126   60.4424   40.1894 dc         1 CLA      0.063600
     74 HMB1       82.0538   61.7536   41.0732 dc         1 CLA      0.063600
     75 HMA3       82.7604   57.6607   37.8667 dc         1 CLA      0.058300
     76 HMA2       81.8158   56.1702   37.9370 dc         1 CLA      0.058300
     77 HMA1       82.6894   56.5035   36.4780 dc         1 CLA      0.058300
     78 HED3       77.4029   50.9689   36.6810 dc         1 CLA      0.079300
     79 HED2       78.9476   51.8471   37.2547 dc         1 CLA      0.079300
     80 HED1       77.7090   51.5417   38.3903 dc         1 CLA      0.079300
     81 HBC3       73.5737   55.4817   43.1623 dc         1 CLA      0.016300
     82 HBC2       71.9137   55.3299   43.2016 dc         1 CLA      0.016300
     83 HBC1       72.5126   55.4323   41.5469 dc         1 CLA      0.016300
     84 HBB2       80.6436   62.1596   44.9240 da         1 CLA      0.183000
     85 HBB1       81.6070   61.0853   43.8446 da         1 CLA      0.183000
     86 HBA2       80.6801   57.5065   32.4228 dc         1 CLA      0.029400
     87 HBA1       81.6224   57.5083   33.9221 dc         1 CLA      0.029400
     88 HAC2       72.4604   57.5806   43.6778 dc         1 CLA      0.029300
     89 HAC1       71.6813   57.6160   42.1045 dc         1 CLA      0.029300
     90 HAA2       78.8170   56.5950   33.9995 dc         1 CLA      0.028700
     91 HAA1       79.3487   58.1541   34.3896 dc         1 CLA      0.028700
     92 H203       83.8214   59.3052   45.4976 dc         1 CLA      0.065600
     93 H202       83.8826   59.1475   43.7972 dc         1 CLA      0.065600
     94 H201       82.7825   58.1023   44.8020 dc         1 CLA      0.065600
     95 H193       85.2568   57.5337   46.7585 dc         1 CLA      0.065600
     96 H192       83.9553   56.5413   46.5526 dc         1 CLA      0.065600
     97 H191       85.6196   56.0165   46.0179 dc         1 CLA      0.065600
     98 H172       86.4177   58.9597   44.8461 dc         1 CLA      0.027600
     99 H171       85.9665   58.5453   43.2289 dc         1 CLA      0.027600
    100 H162       87.2837   56.2722   44.6854 dc         1 CLA      0.002900
    101 H161       88.3420   57.5471   44.2253 dc         1 CLA      0.002900
    102 H152       87.5200   57.4751   41.8554 dc         1 CLA      0.029100
    103 H151       86.4925   56.0939   42.3266 dc         1 CLA      0.029100
    104 H143       89.4386   53.5992   42.8203 dc         1 CLA      0.063600
    105 H142       89.1398   54.7544   44.1529 dc         1 CLA      0.063600
    106 H141       87.7987   54.0527   43.2244 dc         1 CLA      0.063600
    107 H122       87.6983   54.5030   40.6671 dc         1 CLA      0.032500
    108 H121       89.2813   54.2635   40.6030 dc         1 CLA      0.032500
    109 H112       89.7701   56.3369   39.5122 dc         1 CLA      0.006600
    110 H111       88.0613   56.8970   39.6853 dc         1 CLA      0.006600
    111 H102       88.9221   54.3639   38.1587 dc         1 CLA      0.024100
    112 H101       88.8960   55.8818   37.4327 dc         1 CLA      0.024100
    113 HHD        72.9162   56.8699   39.8090 da         1 CLA      0.174300
    114 HHC        77.1658   60.2015   43.1756 da         1 CLA      0.136800
    115 HHB        81.3470   59.5300   38.4811 da         1 CLA      0.138300
    116 HBD        77.2040   55.2063   34.4934 dc         1 CLA      0.107700
    117 HAB        78.5245   61.9201   43.5486 da         1 CLA      0.155200
    118 H93        85.7413   56.8294   38.7005 dc         1 CLA      0.069500
    119 H92        86.9733   57.3093   37.6342 dc         1 CLA      0.069500
    120 H91        85.4833   56.5909   37.0130 dc         1 CLA      0.069500
    121 H8         86.3005   54.6653   38.8569 dc         1 CLA      0.029300
    122 H72        87.0977   53.3560   37.0983 dc         1 CLA      0.044400
    123 H71        86.8683   54.4207   35.8184 dc         1 CLA      0.044400
    124 H62        84.4219   54.6192   36.7093 dc         1 CLA      0.015600
    125 H61        84.8790   53.2723   37.7433 dc         1 CLA      0.015600
    126 H52        85.5681   51.9099   35.7640 dc         1 CLA      0.033200
    127 H51        85.1500   53.1923   34.6768 dc         1 CLA      0.033200
    128 H43        82.6578   50.2668   34.7199 dc         1 CLA      0.037000
    129 H42        84.0886   50.5952   33.8054 dc         1 CLA      0.037000
    130 H41        84.1598   50.0092   35.4089 dc         1 CLA      0.037000
    131 H3A        81.1340   58.4558   36.0134 dc         1 CLA      0.041100
    132 H2A        80.1285   55.6644   35.9436 dc         1 CLA      0.083100
    133 H2         81.6600   52.7952   35.9149 da         1 CLA      0.180900
    134 H18        84.5648   56.7094   43.9605 dc         1 CLA     -0.003900
    135 H13        89.5569   56.2400   42.3173 dc         1 CLA      0.019700
    136 H12        80.8517   53.1032   33.8545 dc         1 CLA      0.120400
    137 H11        82.3389   53.0267   33.0234 dc         1 CLA      0.120400
    138 C1         69.5381   60.9204   49.7849 Z1         2 LUT      0.509236
    139 C2         68.1347   60.9215   50.3336 Z2         2 LUT     -0.434695
    140 C3         67.3726   62.2068   50.6937 Z3         2 LUT      0.437453
    141 O3         67.2127   62.5028   52.1375 S1         2 LUT     -0.547129
    142 C4         67.8724   63.3979   49.8975 Z4         2 LUT     -0.468603
    143 C5         68.7235   63.0772   48.6321 Z5         2 LUT      0.279246
    144 C6         69.5492   61.9699   48.5759 Z6         2 LUT     -0.305473
    145 C7         70.1428   61.4853   47.3125 Z7         2 LUT      0.069402
    146 C8         71.0666   62.0489   46.4997 Z8         2 LUT     -0.191631
    147 C9         71.5549   61.5924   45.2104 Z9         2 LUT      0.196698
    148 C10        72.6032   62.3140   44.7567 Y1         2 LUT     -0.208611
    149 C11        73.3280   62.2071   43.5019 Y2         2 LUT      0.030784
    150 C12        74.4880   62.9433   43.2617 Y3         2 LUT     -0.220316
    151 C13        75.4003   62.9818   42.1012 Y4         2 LUT      0.215937
    152 C14        76.5329   63.6555   42.2382 Y5         2 LUT     -0.185793
    153 C15        77.6012   63.6411   41.3220 Y6         2 LUT     -0.057835
    154 C16        70.0813   59.4894   49.4363 Y7         2 LUT     -0.405615
    155 C17        70.3997   61.4823   51.0073 Y7         2 LUT     -0.405615
    156 C18        68.2553   63.8783   47.4032 Y9         2 LUT     -0.369639
    157 C19        70.9084   60.3920   44.5894 W1         2 LUT     -0.333362
    158 C20        74.8398   62.4626   40.8185 W2         2 LUT     -0.323439
    159 C21        88.8877   64.3228   35.0269 Z1         2 LUT      0.406104
    160 C22        89.3647   63.5367   33.7912 Z2         2 LUT     -0.404965
    161 C23        89.5176   64.2696   32.4480 Z3         2 LUT      0.391255
    162 O23        89.9825   63.2679   31.5322 S1         2 LUT     -0.528210
    163 C24        88.3466   65.1156   32.1093 W6         2 LUT     -0.258361
    164 C25        87.3938   65.5400   33.0336 Z5         2 LUT      0.133546
    165 C26        87.4428   64.8899   34.5261 W8         2 LUT     -0.147008
    166 C27        86.7454   65.7454   35.5816 Z7         2 LUT      0.023843
    167 C28        85.5798   65.4134   36.1482 Z8         2 LUT     -0.216987
    168 C29        85.0184   65.7787   37.4464 Z9         2 LUT      0.206524
    169 C30        83.7713   65.1904   37.8296 Y1         2 LUT     -0.215556
    170 C31        83.0691   65.4038   39.1300 Y2         2 LUT      0.025142
    171 C32        82.0206   64.6987   39.6683 Y3         2 LUT     -0.212209
    172 C33        81.1138   64.9321   40.8141 Y4         2 LUT      0.240937
    173 C34        79.9231   64.2095   40.7955 Y5         2 LUT     -0.218862
    174 C35        78.7569   64.2509   41.5985 Y6         2 LUT     -0.023547
    175 C36        89.8942   65.4902   35.3387 Y7         2 LUT     -0.393485
    176 C37        88.8016   63.2294   36.2149 Y7         2 LUT     -0.393485
    177 C38        86.2459   66.4750   32.7926 Y9         2 LUT     -0.387526
    178 C39        85.5827   66.7737   38.4190 W1         2 LUT     -0.322618
    179 C40        81.4584   66.0422   41.7289 W2         2 LUT     -0.358472
    180 H403       80.6116   66.4422   42.3554 R7         2 LUT      0.097720
    181 H402       82.3038   65.8188   42.3984 R7         2 LUT      0.097720
    182 H401       81.6574   66.8918   41.0991 R7         2 LUT      0.097720
    183 H393       86.4775   67.2790   38.1221 R4         2 LUT      0.082505
    184 H392       84.9104   67.5419   38.6689 R4         2 LUT      0.082505
    185 H391       85.8606   66.3174   39.3916 R4         2 LUT      0.082505
    186 H383       86.3624   67.0505   31.8258 R1         2 LUT      0.104030
    187 H382       85.3013   65.8460   32.9019 R1         2 LUT      0.104030
    188 H381       86.1744   67.2557   33.6176 R1         2 LUT      0.104030
    189 H373       89.7109   62.9845   36.5934 T4         2 LUT      0.089537
    190 H372       88.1057   63.5869   36.9734 T4         2 LUT      0.089537
    191 H371       88.2615   62.3366   35.8355 T4         2 LUT      0.089537
    192 H363       89.8057   66.3704   34.5843 T4         2 LUT      0.089537
    193 H362       89.6871   66.0059   36.3081 T4         2 LUT      0.089537
    194 H361       90.8582   65.1211   35.5308 T4         2 LUT      0.089537
    195 H222       90.2949   62.9870   34.1114 U2         2 LUT      0.127376
    196 H221       88.7449   62.6455   33.5808 U2         2 LUT      0.127376
    197 H203       75.2223   62.9717   39.9507 R7         2 LUT      0.087068
    198 H202       75.1830   61.4505   40.5721 R7         2 LUT      0.087068
    199 H201       73.7979   62.2450   40.7286 R7         2 LUT      0.087068
    200 H193       71.0965   59.4705   45.1208 R4         2 LUT      0.089716
    201 H192       69.8488   60.5172   44.5014 R4         2 LUT      0.089716
    202 H191       71.2489   60.1413   43.5568 R4         2 LUT      0.089716
    203 H183       67.1684   64.1171   47.4271 R1         2 LUT      0.094572
    204 H182       68.9598   64.6897   47.2634 R1         2 LUT      0.094572
    205 H181       68.3098   63.2507   46.5211 R1         2 LUT      0.094572
    206 H173       70.2951   62.5557   51.1691 T4         2 LUT      0.093752
    207 H172       70.2830   61.0030   51.9247 T4         2 LUT      0.093752
    208 H171       71.4407   61.4328   50.7870 T4         2 LUT      0.093752
    209 H163       71.1486   59.6011   49.1400 T4         2 LUT      0.093752
    210 H162       69.8024   58.6938   50.1560 T4         2 LUT      0.093752
    211 H161       69.5597   59.1000   48.5587 T4         2 LUT      0.093752
    212 HO3        68.0736   62.5288   52.5719 Q1         2 LUT      0.300121
    213 H8         71.4281   63.0079   46.9072 U7         2 LUT      0.080784
    214 H7         69.6389   60.5895   46.9725 U6         2 LUT      0.042190
    215 H42        67.0373   64.1296   49.8125 U5         2 LUT      0.145166
    216 H41        68.4588   63.8879   50.6434 U5         2 LUT      0.145166
    217 H35        78.7370   64.8187   42.5388 T3         2 LUT      0.077919
    218 H34        79.8403   63.4971   39.9676 T2         2 LUT      0.073626
    219 H32        81.7315   63.8689   39.0313 T1         2 LUT      0.092510
    220 H31        83.3601   66.2705   39.7166 U9         2 LUT      0.070048
    221 H30        83.3848   64.4162   37.0806 U8         2 LUT      0.085442
    222 H3         66.3387   61.9726   50.5064 U3         2 LUT     -0.031596
    223 H28        85.1344   64.6344   35.5555 U7         2 LUT      0.084728
    224 H27        87.3663   66.4171   36.1339 U6         2 LUT      0.087291
    225 H26        86.8732   63.9764   34.3206 Q6         2 LUT      0.075325
    226 H24        88.2448   65.6118   31.1187 Q5         2 LUT      0.094482
    227 H23        90.3020   64.9480   32.7613 U3         2 LUT     -0.024869
    228 H22        67.5167   60.3924   49.5587 U2         2 LUT      0.127376
    229 H21        68.1905   60.2764   51.2254 U2         2 LUT      0.127376
    230 H15        77.6835   63.0521   40.4788 T3         2 LUT      0.093200
    231 H14        76.8930   64.1181   43.2157 T2         2 LUT      0.068865
    232 H12        74.7445   63.6389   44.0415 T1         2 LUT      0.095507
    233 H11        72.9682   61.4472   42.8922 U9         2 LUT      0.068930
    234 H10        72.7390   63.2369   45.4194 U8         2 LUT      0.083911
    235 H1         90.5729   63.6635   30.8900 Q1         2 LUT      0.297311
@<TRIPOS>BOND
    1     6     1 1
    2     7     2 1
    3     8     3 1
    4     9     4 1
    5    11     4 1
    6    12     6 1
    7    13     9 1
    8    16     9 1
    9    25     5 1
   10    25    16 1
   11    26    10 1
   12    26    17 1
   13    27    18 1
   14    28    14 1
   15    28    19 1
   16    29    12 1
   17    30    13 1
   18    31    24 1
   19    32     1 1
   20    32    25 1
   21    33    21 1
   22    33    26 1
   23    34    22 1
   24    34    27 1
   25    35    23 1
   26    35    28 1
   27    36    12 1
   28    36    24 1
   29    37    13 1
   30    37    15 1
   31    38    31 1
   32    39    20 1
   33    39    32 1
   34    40     2 1
   35    40    33 1
   36    41     3 1
   37    41    34 1
   38    42     4 1
   39    42    35 1
   40    43    38 1
   41    44     5 1
   42    44    17 1
   43    44    39 1
   44    45    10 1
   45    45    18 1
   46    45    40 1
   47    46    19 1
   48    46    41 1
   49    47    14 1
   50    47    16 1
   51    47    42 1
   52    48    38 1
   53    49    48 1
   54    50    49 1
   55    51    50 1
   56    52    51 1
   57    53    51 1
   58    54    53 1
   59    55    54 1
   60    56    55 1
   61    57    56 1
   62    58    56 1
   63    59    58 1
   64    60    59 1
   65    61    60 1
   66    62    61 1
   67    63    61 1
   68    64    27 1
   69    64    46 1
   70    65     5 1
   71    65    10 1
   72    65    64 1
   73    65    14 1
   74    66    23 1
   75    67    23 1
   76    68    23 1
   77    69    22 1
   78    70    22 1
   79    71    22 1
   80    72    21 1
   81    73    21 1
   82    74    21 1
   83    75    20 1
   84    76    20 1
   85    77    20 1
   86    78    15 1
   87    79    15 1
   88    80    15 1
   89    81     8 1
   90    82     8 1
   91    83     8 1
   92    84     7 1
   93    85     7 1
   94    86     6 1
   95    87     6 1
   96    88     3 1
   97    89     3 1
   98    90     1 1
   99    91     1 1
  100    92    63 1
  101    93    63 1
  102    94    63 1
  103    95    62 1
  104    96    62 1
  105    97    62 1
  106    98    60 1
  107    99    60 1
  108   100    59 1
  109   101    59 1
  110   102    58 1
  111   103    58 1
  112   104    57 1
  113   105    57 1
  114   106    57 1
  115   107    55 1
  116   108    55 1
  117   109    54 1
  118   110    54 1
  119   111    53 1
  120   112    53 1
  121   113    19 1
  122   114    18 1
  123   115    17 1
  124   116     9 1
  125   117     2 1
  126   118    52 1
  127   119    52 1
  128   120    52 1
  129   121    51 1
  130   122    50 1
  131   123    50 1
  132   124    49 1
  133   125    49 1
  134   126    48 1
  135   127    48 1
  136   128    43 1
  137   129    43 1
  138   130    43 1
  139   131    39 1
  140   132    32 1
  141   133    31 1
  142   134    61 1
  143   135    56 1
  144   136    24 1
  145   137    24 1
  146   139   138 1
  147   140   139 1
  148   141   140 1
  149   142   140 1
  150   143   142 1
  151   144   138 1
  152   144   143 1
  153   145   144 1
  154   146   145 1
  155   147   146 1
  156   148   147 1
  157   149   148 1
  158   150   149 1
  159   151   150 1
  160   152   151 1
  161   153   152 1
  162   154   138 1
  163   155   138 1
  164   156   143 1
  165   157   147 1
  166   158   151 1
  167   160   159 1
  168   161   160 1
  169   162   161 1
  170   163   161 1
  171   164   163 1
  172   165   159 1
  173   165   164 1
  174   166   165 1
  175   167   166 1
  176   168   167 1
  177   169   168 1
  178   170   169 1
  179   171   170 1
  180   172   171 1
  181   173   172 1
  182   174   153 1
  183   174   173 1
  184   175   159 1
  185   176   159 1
  186   177   164 1
  187   178   168 1
  188   179   172 1
  189   180   179 1
  190   181   179 1
  191   182   179 1
  192   183   178 1
  193   184   178 1
  194   185   178 1
  195   186   177 1
  196   187   177 1
  197   188   177 1
  198   189   176 1
  199   190   176 1
  200   191   176 1
  201   192   175 1
  202   193   175 1
  203   194   175 1
  204   195   160 1
  205   196   160 1
  206   197   158 1
  207   198   158 1
  208   199   158 1
  209   200   157 1
  210   201   157 1
  211   202   157 1
  212   203   156 1
  213   204   156 1
  214   205   156 1
  215   206   155 1
  216   207   155 1
  217   208   155 1
  218   209   154 1
  219   210   154 1
  220   211   154 1
  221   212   141 1
  222   213   146 1
  223   214   145 1
  224   215   142 1
  225   216   142 1
  226   217   174 1
  227   218   173 1
  228   219   171 1
  229   220   170 1
  230   221   169 1
  231   222   140 1
  232   223   167 1
  233   224   166 1
  234   225   165 1
  235   226   163 1
  236   227   161 1
  237   228   139 1
  238   229   139 1
  239   230   153 1
  240   231   152 1
  241   232   150 1
  242   233   149 1
  243   234   148 1
  244   235   162 1
  245   65    153 1
  246   65    174 1
@<TRIPOS>SUBSTRUCTURE
      1 CLA               1 ****               0 ****  **** 
      2 LUT             138 ****               0 ****  **** 
