@<TRIPOS>MOLECULE
Cpptraj generated mol2 file.
  235   246     2     0     0
SMALL
USER_CHARGES


@<TRIPOS>ATOM
      1 CAA        78.9248   58.8362   34.4161 a2         1 CLA     -0.055900
      2 CAB        78.8961   61.4818   43.8192 c8         1 CLA     -0.148500
      3 CAC        71.9164   57.7422   42.8900 a2         1 CLA     -0.012600
      4 CAD        74.5140   56.6759   35.1052 ck         1 CLA      0.398800
      5 NA         77.8320   58.7862   37.8162 ns         1 CLA     -0.225500
      6 CBA        80.1780   58.7652   33.6609 a2         1 CLA     -0.135000
      7 CBB        80.0413   61.2330   44.4565 c0         1 CLA     -0.395200
      8 CBC        71.6668   56.3374   42.5386 a3         1 CLA     -0.037700
      9 CBD        75.9755   56.9689   34.9046 a1         1 CLA     -0.053900
     10 NB         77.8294   59.8285   40.6120 nm         1 CLA     -0.295700
     11 OBD        73.8495   56.1773   34.2057 o2         1 CLA     -0.494600
     12 CGA        80.6015   57.3172   33.2581 c4         1 CLA      0.827000
     13 CGD        76.7541   55.6659   34.6689 c4         1 CLA      0.655300
     14 ND         75.0612   58.1368   38.2727 nm         1 CLA     -0.291600
     15 CED        76.7765   53.2409   34.9505 a3         1 CLA      0.005400
     16 CHA        76.3944   57.6974   36.1903 cs         1 CLA     -0.123800
     17 CHB        79.6453   59.9385   39.0309 aa         1 CLA     -0.291900
     18 CHC        76.3563   60.1256   42.5760 aa         1 CLA     -0.090400
     19 CHD        73.1539   57.9772   39.7893 aa         1 CLA     -0.052000
     20 CMA        81.1017   57.7213   37.3499 a3         1 CLA     -0.230700
     21 CMB        80.9971   61.4493   41.4635 a3         1 CLA     -0.180800
     22 CMC        74.1362   59.3392   44.6665 a3         1 CLA     -0.134000
     23 CMD        71.7961   56.3964   37.4836 a3         1 CLA     -0.141100
     24 C1         81.4933   55.2155   33.8669 a2         1 CLA      0.023000
     25 C1A        77.6027   58.2512   36.5928 ac         1 CLA     -0.015100
     26 C1B        79.0972   60.2256   40.2640 cr         1 CLA      0.054700
     27 C1C        75.2216   59.3582   42.2098 cn         1 CLA     -0.005600
     28 C1D        73.8054   57.6868   38.5593 ap         1 CLA     -0.047300
     29 O1A        80.1302   56.7917   32.2578 o2         1 CLA     -0.610800
     30 O1D        77.8003   55.5864   34.0636 o2         1 CLA     -0.558200
     31 C2         82.1895   54.6527   35.0933 c8         1 CLA     -0.325100
     32 C2A        78.9011   58.1888   35.8328 a1         1 CLA      0.098600
     33 C2B        79.6358   60.9434   41.3916 cb         1 CLA      0.088500
     34 C2C        74.1331   58.9788   43.1119 cb         1 CLA      0.053700
     35 C2D        73.1531   57.0611   37.4416 cb         1 CLA      0.058900
     36 O2A        81.2983   56.6744   34.1699 o1         1 CLA     -0.437200
     37 O2D        76.1359   54.5734   35.2997 o1         1 CLA     -0.357600
     38 C3         82.9415   53.5383   35.2374 c5         1 CLA      0.031200
     39 C3A        80.0229   58.6927   36.8585 a1         1 CLA      0.166800
     40 C3B        78.6898   60.9791   42.4260 cb         1 CLA      0.035000
     41 C3C        73.2022   58.2934   42.3418 cb         1 CLA     -0.089900
     42 C3D        74.1801   57.0696   36.4577 cb         1 CLA     -0.035900
     43 C4         82.3568   52.2101   35.6302 a3         1 CLA     -0.053300
     44 C4A        79.0928   59.2736   37.9322 ac         1 CLA      0.001800
     45 C4B        77.5220   60.3349   41.9228 cn         1 CLA     -0.020900
     46 C4C        73.7404   58.4098   40.9758 cr         1 CLA     -0.044400
     47 C4D        75.2607   57.7067   37.0216 c6         1 CLA     -0.046000
     48 C5         84.4835   53.6084   35.0884 a2         1 CLA     -0.070400
     49 C6         85.2692   54.7827   35.6147 a2         1 CLA      0.043900
     50 C7         85.1058   54.8448   37.1756 a2         1 CLA     -0.150000
     51 C8         85.6716   56.1764   37.7756 a1         1 CLA      0.064200
     52 C9         87.1568   56.4397   37.4982 a3         1 CLA     -0.259300
     53 C10        85.3063   56.2368   39.3233 a2         1 CLA     -0.071900
     54 C11        83.7952   56.2654   39.8056 a2         1 CLA      0.014500
     55 C12        83.7415   56.3191   41.3330 a2         1 CLA     -0.112100
     56 C13        82.3278   56.6257   41.9183 a1         1 CLA      0.089200
     57 C14        81.8359   58.1011   41.6802 a3         1 CLA     -0.239100
     58 C15        82.1876   56.1209   43.3726 a2         1 CLA     -0.102200
     59 C16        83.0505   56.9267   44.3668 a2         1 CLA      0.023900
     60 C17        82.7702   56.4809   45.8081 a2         1 CLA     -0.105700
     61 C18        83.4994   57.3259   46.8841 a1         1 CLA      0.206800
     62 C19        83.3091   56.6915   48.2451 a3         1 CLA     -0.280100
     63 C20        84.9582   57.3993   46.6133 a3         1 CLA     -0.280100
     64 NC         75.0280   58.8796   40.9401 nx         1 CLA     -0.309200
     65 MG         76.3888   59.0259   39.3141 mg         1 CLA      0.895000
     66 HMD3       71.6986   55.6994   36.6698 dc         1 CLA      0.064300
     67 HMD2       71.6331   55.7830   38.3246 dc         1 CLA      0.064300
     68 HMD1       71.0208   57.1503   37.3952 dc         1 CLA      0.064300
     69 HMC3       73.7375   60.3441   44.9282 dc         1 CLA      0.052100
     70 HMC2       73.5826   58.5744   45.1853 dc         1 CLA      0.052100
     71 HMC1       75.1596   59.1432   45.1529 dc         1 CLA      0.052100
     72 HMB3       81.6129   60.6929   41.7720 dc         1 CLA      0.063600
     73 HMB2       81.2449   61.8071   40.4509 dc         1 CLA      0.063600
     74 HMB1       81.0325   62.2494   42.1303 dc         1 CLA      0.063600
     75 HMA3       81.8189   57.4817   36.5220 dc         1 CLA      0.058300
     76 HMA2       81.7628   58.1304   38.1400 dc         1 CLA      0.058300
     77 HMA1       80.5797   56.8118   37.6685 dc         1 CLA      0.058300
     78 HED3       77.8623   53.3111   35.0084 dc         1 CLA      0.079300
     79 HED2       76.4045   52.6221   35.7484 dc         1 CLA      0.079300
     80 HED1       76.3461   53.0602   34.0098 dc         1 CLA      0.079300
     81 HBC3       71.6593   56.1504   41.4227 dc         1 CLA      0.016300
     82 HBC2       72.5764   55.8502   42.9217 dc         1 CLA      0.016300
     83 HBC1       70.7773   55.9877   43.0960 dc         1 CLA      0.016300
     84 HBB2       80.2435   61.7556   45.3501 da         1 CLA      0.183000
     85 HBB1       80.8269   60.5058   44.1285 da         1 CLA      0.183000
     86 HBA2       79.9966   59.2883   32.7668 dc         1 CLA      0.029400
     87 HBA1       81.0050   59.2187   34.1744 dc         1 CLA      0.029400
     88 HAC2       71.8953   57.8072   44.0390 dc         1 CLA      0.029300
     89 HAC1       70.9980   58.2324   42.3897 dc         1 CLA      0.029300
     90 HAA2       78.1489   58.3897   33.7211 dc         1 CLA      0.028700
     91 HAA1       78.6029   59.8959   34.5362 dc         1 CLA      0.028700
     92 H203       85.1726   57.8482   45.6514 dc         1 CLA      0.065600
     93 H202       85.4449   57.9837   47.3713 dc         1 CLA      0.065600
     94 H201       85.2943   56.3635   46.8224 dc         1 CLA      0.065600
     95 H193       83.7368   57.1903   49.1213 dc         1 CLA      0.065600
     96 H192       82.3110   56.6670   48.4401 dc         1 CLA      0.065600
     97 H191       83.7884   55.6986   48.1737 dc         1 CLA      0.065600
     98 H172       81.7346   56.5927   46.0187 dc         1 CLA      0.027600
     99 H171       83.0155   55.4205   45.8406 dc         1 CLA      0.027600
    100 H162       84.0538   56.5478   44.1003 dc         1 CLA      0.002900
    101 H161       82.9286   57.9433   44.1639 dc         1 CLA      0.002900
    102 H152       81.1300   56.1548   43.6088 dc         1 CLA      0.029100
    103 H151       82.5539   55.1572   43.4738 dc         1 CLA      0.029100
    104 H143       80.8104   58.0219   41.8798 dc         1 CLA      0.063600
    105 H142       82.4033   58.8584   42.1789 dc         1 CLA      0.063600
    106 H141       81.8434   58.2380   40.6429 dc         1 CLA      0.063600
    107 H122       84.1768   55.3725   41.6664 dc         1 CLA      0.032500
    108 H121       84.4211   57.1481   41.6849 dc         1 CLA      0.032500
    109 H112       83.4172   57.1238   39.3489 dc         1 CLA      0.006600
    110 H111       83.2096   55.4075   39.5035 dc         1 CLA      0.006600
    111 H102       85.6939   55.3212   39.6784 dc         1 CLA      0.024100
    112 H101       85.8545   57.0451   39.8776 dc         1 CLA      0.024100
    113 HHD        72.0862   57.7341   39.9175 da         1 CLA      0.174300
    114 HHC        76.2589   60.3641   43.6710 da         1 CLA      0.136800
    115 HHB        80.7125   60.0663   38.9636 da         1 CLA      0.138300
    116 HBD        76.1077   57.5996   34.0772 dc         1 CLA      0.107700
    117 HAB        78.1905   62.1715   44.3056 da         1 CLA      0.155200
    118 H93        87.7097   55.5143   37.5773 dc         1 CLA      0.069500
    119 H92        87.2193   56.6446   36.3948 dc         1 CLA      0.069500
    120 H91        87.6345   57.0756   38.0388 dc         1 CLA      0.069500
    121 H8         85.0586   56.9955   37.2639 dc         1 CLA      0.029300
    122 H72        84.0337   54.8707   37.2274 dc         1 CLA      0.044400
    123 H71        85.4838   53.9651   37.5875 dc         1 CLA      0.044400
    124 H62        86.3640   54.7072   35.3808 dc         1 CLA      0.015600
    125 H61        84.8717   55.7632   35.1837 dc         1 CLA      0.015600
    126 H52        84.9912   52.6929   35.4134 dc         1 CLA      0.033200
    127 H51        84.5821   53.5911   34.0258 dc         1 CLA      0.033200
    128 H43        81.2344   52.2448   35.6436 dc         1 CLA      0.037000
    129 H42        82.7304   51.4744   34.8852 dc         1 CLA      0.037000
    130 H41        82.7135   51.9936   36.5638 dc         1 CLA      0.037000
    131 H3A        80.5855   59.4628   36.3653 dc         1 CLA      0.041100
    132 H2A        79.0951   57.1810   35.6049 dc         1 CLA      0.083100
    133 H2         81.9875   55.2018   36.0423 da         1 CLA      0.180900
    134 H18        83.0367   58.2171   46.9013 dc         1 CLA     -0.003900
    135 H13        81.5892   56.1801   41.2138 dc         1 CLA      0.019700
    136 H12        80.4094   54.8674   33.8954 dc         1 CLA      0.120400
    137 H11        82.0341   54.9911   32.9656 dc         1 CLA      0.120400
    138 C1         68.3497   61.1159   50.3136 Z1         2 LUT      0.509236
    139 C2         67.0423   60.9277   51.0340 Z2         2 LUT     -0.434695
    140 C3         66.2201   62.1358   51.4846 Z3         2 LUT      0.437453
    141 O3         66.7838   62.5918   52.7377 S1         2 LUT     -0.547129
    142 C4         66.3428   63.2814   50.5013 Z4         2 LUT     -0.468603
    143 C5         67.1419   63.0764   49.2296 Z5         2 LUT      0.279246
    144 C6         68.0690   62.1377   49.1834 Z6         2 LUT     -0.305473
    145 C7         68.5406   61.7057   47.8066 Z7         2 LUT      0.069402
    146 C8         69.7431   61.9304   47.2498 Z8         2 LUT     -0.191631
    147 C9         70.2240   61.7099   45.9275 Z9         2 LUT      0.196698
    148 C10        71.3748   62.3441   45.5087 Y1         2 LUT     -0.208611
    149 C11        72.0321   62.3451   44.1618 Y2         2 LUT      0.030784
    150 C12        73.1757   62.9747   43.9235 Y3         2 LUT     -0.220316
    151 C13        74.0444   62.9954   42.7359 Y4         2 LUT      0.215937
    152 C14        75.1824   63.7232   42.7212 Y5         2 LUT     -0.185793
    153 C15        76.2563   63.8156   41.7854 Y6         2 LUT     -0.057835
    154 C16        68.8004   59.6573   49.8048 Y7         2 LUT     -0.405615
    155 C17        69.3519   61.6884   51.3509 Y7         2 LUT     -0.405615
    156 C18        66.6027   63.9726   48.0291 Y9         2 LUT     -0.369639
    157 C19        69.6211   60.5459   45.1843 W1         2 LUT     -0.333362
    158 C20        73.4870   62.3979   41.5028 W2         2 LUT     -0.323439
    159 C21        87.4566   65.2480   34.9511 Z1         2 LUT      0.406104
    160 C22        88.2232   64.9563   33.6077 Z2         2 LUT     -0.404965
    161 C23        88.2776   66.0774   32.5781 Z3         2 LUT      0.391255
    162 O23        88.9262   65.5323   31.5003 S1         2 LUT     -0.528210
    163 C24        86.9076   66.8113   32.3975 W6         2 LUT     -0.258361
    164 C25        85.8482   66.7221   33.2911 Z5         2 LUT      0.133546
    165 C26        86.0021   65.7655   34.5380 W8         2 LUT     -0.147008
    166 C27        85.1612   66.3233   35.6631 Z7         2 LUT      0.023843
    167 C28        84.0452   65.8313   36.1854 Z8         2 LUT     -0.216987
    168 C29        83.2694   66.3378   37.3231 Z9         2 LUT      0.206524
    169 C30        82.3064   65.5622   37.9096 Y1         2 LUT     -0.215556
    170 C31        81.5596   65.8443   39.1264 Y2         2 LUT      0.025142
    171 C32        80.5244   65.0685   39.5841 Y3         2 LUT     -0.212209
    172 C33        79.5883   65.3862   40.6389 Y4         2 LUT      0.240937
    173 C34        78.4093   64.6554   40.8854 Y5         2 LUT     -0.218862
    174 C35        77.2877   64.7399   41.8193 Y6         2 LUT     -0.023547
    175 C36        88.2175   66.3581   35.7748 Y7         2 LUT     -0.393485
    176 C37        87.4688   63.8840   35.7454 Y7         2 LUT     -0.393485
    177 C38        84.5885   67.5323   32.9710 Y9         2 LUT     -0.387526
    178 C39        83.6905   67.5482   37.9367 W1         2 LUT     -0.322618
    179 C40        80.2431   66.2563   41.7024 W2         2 LUT     -0.358472
    180 H403       81.2294   65.9199   41.9992 R7         2 LUT      0.097720
    181 H402       80.3355   67.3656   41.5742 R7         2 LUT      0.097720
    182 H401       79.6879   66.2339   42.6557 R7         2 LUT      0.097720
    183 H393       83.7663   68.2837   37.1106 R4         2 LUT      0.082505
    184 H392       83.0931   68.0522   38.7003 R4         2 LUT      0.082505
    185 H391       84.6993   67.4469   38.4607 R4         2 LUT      0.082505
    186 H383       84.8912   68.6216   32.9081 R1         2 LUT      0.104030
    187 H382       84.1091   67.1673   32.0439 R1         2 LUT      0.104030
    188 H381       83.7388   67.4771   33.6246 R1         2 LUT      0.104030
    189 H373       86.9191   63.1399   35.1658 T4         2 LUT      0.089537
    190 H372       88.4736   63.5748   35.8810 T4         2 LUT      0.089537
    191 H371       86.9889   64.0245   36.7099 T4         2 LUT      0.089537
    192 H363       87.8231   66.3391   36.7414 T4         2 LUT      0.089537
    193 H362       89.3085   66.2288   35.9190 T4         2 LUT      0.089537
    194 H361       88.1274   67.3183   35.2423 T4         2 LUT      0.089537
    195 H222       89.2110   64.6901   33.7963 U2         2 LUT      0.127376
    196 H221       87.7596   64.0682   33.2292 U2         2 LUT      0.127376
    197 H203       72.9117   61.5099   41.6465 R7         2 LUT      0.087068
    198 H202       72.8622   63.0980   40.9936 R7         2 LUT      0.087068
    199 H201       74.2589   61.9905   40.8898 R7         2 LUT      0.087068
    200 H193       69.4825   59.6700   45.8132 R4         2 LUT      0.089716
    201 H192       68.7396   60.9897   44.6754 R4         2 LUT      0.089716
    202 H191       70.2994   60.2705   44.4066 R4         2 LUT      0.089716
    203 H183       67.1873   64.9339   47.9287 R1         2 LUT      0.094572
    204 H182       66.6588   63.3256   47.1282 R1         2 LUT      0.094572
    205 H181       65.5629   64.3510   48.1757 R1         2 LUT      0.094572
    206 H173       69.0346   62.7256   51.6327 T4         2 LUT      0.093752
    207 H172       69.4884   61.1777   52.3149 T4         2 LUT      0.093752
    208 H171       70.3637   61.8714   50.9502 T4         2 LUT      0.093752
    209 H163       68.1638   59.2014   49.0314 T4         2 LUT      0.093752
    210 H162       69.7645   59.7544   49.3428 T4         2 LUT      0.093752
    211 H161       68.7780   58.9864   50.6166 T4         2 LUT      0.093752
    212 HO3        66.2720   62.2166   53.4743 Q1         2 LUT      0.300121
    213 H8         70.4252   62.5561   47.9194 U7         2 LUT      0.080784
    214 H7         67.8495   61.1385   47.1701 U6         2 LUT      0.042190
    215 H42        65.3108   63.6705   50.2933 U5         2 LUT      0.145166
    216 H41        66.6409   64.1889   51.0727 U5         2 LUT      0.145166
    217 H35        77.3785   65.4050   42.7019 T3         2 LUT      0.077919
    218 H34        78.3646   63.9962   40.0159 T2         2 LUT      0.073626
    219 H32        80.2798   64.2182   38.9723 T1         2 LUT      0.092510
    220 H31        81.7555   66.7554   39.6090 U9         2 LUT      0.070048
    221 H30        82.0528   64.5497   37.4658 U8         2 LUT      0.085442
    222 H3         65.2228   61.8052   51.5285 U3         2 LUT     -0.031596
    223 H28        83.5970   64.8895   35.8240 U7         2 LUT      0.084728
    224 H27        85.6106   67.3285   35.9745 U6         2 LUT      0.087291
    225 H26        85.6416   64.8043   34.0938 Q6         2 LUT      0.075325
    226 H24        86.7935   67.2964   31.4537 Q5         2 LUT      0.094482
    227 H23        88.9220   66.8583   33.0227 U3         2 LUT     -0.024869
    228 H22        66.4527   60.1486   50.4982 U2         2 LUT      0.127376
    229 H21        67.2024   60.3007   51.9089 U2         2 LUT      0.127376
    230 H15        76.2053   63.0287   40.9834 T3         2 LUT      0.093200
    231 H14        75.3005   64.4564   43.4977 T2         2 LUT      0.068865
    232 H12        73.5760   63.5072   44.7824 T1         2 LUT      0.095507
    233 H11        71.5794   61.7068   43.4178 U9         2 LUT      0.068930
    234 H10        71.6591   63.2440   46.2014 U8         2 LUT      0.083911
    235 H1         88.3322   65.3730   30.7355 Q1         2 LUT      0.297311
@<TRIPOS>BOND
    1     6     1 1
    2     7     2 1
    3     8     3 1
    4     9     4 1
    5    11     4 1
    6    12     6 1
    7    13     9 1
    8    16     9 1
    9    25     5 1
   10    25    16 1
   11    26    10 1
   12    26    17 1
   13    27    18 1
   14    28    14 1
   15    28    19 1
   16    29    12 1
   17    30    13 1
   18    31    24 1
   19    32     1 1
   20    32    25 1
   21    33    21 1
   22    33    26 1
   23    34    22 1
   24    34    27 1
   25    35    23 1
   26    35    28 1
   27    36    12 1
   28    36    24 1
   29    37    13 1
   30    37    15 1
   31    38    31 1
   32    39    20 1
   33    39    32 1
   34    40     2 1
   35    40    33 1
   36    41     3 1
   37    41    34 1
   38    42     4 1
   39    42    35 1
   40    43    38 1
   41    44     5 1
   42    44    17 1
   43    44    39 1
   44    45    10 1
   45    45    18 1
   46    45    40 1
   47    46    19 1
   48    46    41 1
   49    47    14 1
   50    47    16 1
   51    47    42 1
   52    48    38 1
   53    49    48 1
   54    50    49 1
   55    51    50 1
   56    52    51 1
   57    53    51 1
   58    54    53 1
   59    55    54 1
   60    56    55 1
   61    57    56 1
   62    58    56 1
   63    59    58 1
   64    60    59 1
   65    61    60 1
   66    62    61 1
   67    63    61 1
   68    64    27 1
   69    64    46 1
   70    65     5 1
   71    65    10 1
   72    65    64 1
   73    65    14 1
   74    66    23 1
   75    67    23 1
   76    68    23 1
   77    69    22 1
   78    70    22 1
   79    71    22 1
   80    72    21 1
   81    73    21 1
   82    74    21 1
   83    75    20 1
   84    76    20 1
   85    77    20 1
   86    78    15 1
   87    79    15 1
   88    80    15 1
   89    81     8 1
   90    82     8 1
   91    83     8 1
   92    84     7 1
   93    85     7 1
   94    86     6 1
   95    87     6 1
   96    88     3 1
   97    89     3 1
   98    90     1 1
   99    91     1 1
  100    92    63 1
  101    93    63 1
  102    94    63 1
  103    95    62 1
  104    96    62 1
  105    97    62 1
  106    98    60 1
  107    99    60 1
  108   100    59 1
  109   101    59 1
  110   102    58 1
  111   103    58 1
  112   104    57 1
  113   105    57 1
  114   106    57 1
  115   107    55 1
  116   108    55 1
  117   109    54 1
  118   110    54 1
  119   111    53 1
  120   112    53 1
  121   113    19 1
  122   114    18 1
  123   115    17 1
  124   116     9 1
  125   117     2 1
  126   118    52 1
  127   119    52 1
  128   120    52 1
  129   121    51 1
  130   122    50 1
  131   123    50 1
  132   124    49 1
  133   125    49 1
  134   126    48 1
  135   127    48 1
  136   128    43 1
  137   129    43 1
  138   130    43 1
  139   131    39 1
  140   132    32 1
  141   133    31 1
  142   134    61 1
  143   135    56 1
  144   136    24 1
  145   137    24 1
  146   139   138 1
  147   140   139 1
  148   141   140 1
  149   142   140 1
  150   143   142 1
  151   144   138 1
  152   144   143 1
  153   145   144 1
  154   146   145 1
  155   147   146 1
  156   148   147 1
  157   149   148 1
  158   150   149 1
  159   151   150 1
  160   152   151 1
  161   153   152 1
  162   154   138 1
  163   155   138 1
  164   156   143 1
  165   157   147 1
  166   158   151 1
  167   160   159 1
  168   161   160 1
  169   162   161 1
  170   163   161 1
  171   164   163 1
  172   165   159 1
  173   165   164 1
  174   166   165 1
  175   167   166 1
  176   168   167 1
  177   169   168 1
  178   170   169 1
  179   171   170 1
  180   172   171 1
  181   173   172 1
  182   174   153 1
  183   174   173 1
  184   175   159 1
  185   176   159 1
  186   177   164 1
  187   178   168 1
  188   179   172 1
  189   180   179 1
  190   181   179 1
  191   182   179 1
  192   183   178 1
  193   184   178 1
  194   185   178 1
  195   186   177 1
  196   187   177 1
  197   188   177 1
  198   189   176 1
  199   190   176 1
  200   191   176 1
  201   192   175 1
  202   193   175 1
  203   194   175 1
  204   195   160 1
  205   196   160 1
  206   197   158 1
  207   198   158 1
  208   199   158 1
  209   200   157 1
  210   201   157 1
  211   202   157 1
  212   203   156 1
  213   204   156 1
  214   205   156 1
  215   206   155 1
  216   207   155 1
  217   208   155 1
  218   209   154 1
  219   210   154 1
  220   211   154 1
  221   212   141 1
  222   213   146 1
  223   214   145 1
  224   215   142 1
  225   216   142 1
  226   217   174 1
  227   218   173 1
  228   219   171 1
  229   220   170 1
  230   221   169 1
  231   222   140 1
  232   223   167 1
  233   224   166 1
  234   225   165 1
  235   226   163 1
  236   227   161 1
  237   228   139 1
  238   229   139 1
  239   230   153 1
  240   231   152 1
  241   232   150 1
  242   233   149 1
  243   234   148 1
  244   235   162 1
  245   65    153 1
  246   65    174 1
@<TRIPOS>SUBSTRUCTURE
      1 CLA               1 ****               0 ****  **** 
      2 LUT             138 ****               0 ****  **** 
