@<TRIPOS>MOLECULE
Cpptraj generated mol2 file.
  235   246     2     0     0
SMALL
USER_CHARGES


@<TRIPOS>ATOM
      1 CAA        77.8581   58.9025   33.3846 a2         1 CLA     -0.055900
      2 CAB        77.8137   62.3938   42.4872 c8         1 CLA     -0.148500
      3 CAC        71.1204   57.8983   41.7631 a2         1 CLA     -0.012600
      4 CAD        74.0830   55.8962   34.6246 ck         1 CLA      0.398800
      5 NA         76.9527   59.0434   36.8181 ns         1 CLA     -0.225500
      6 CBA        79.1009   58.8223   32.4831 a2         1 CLA     -0.135000
      7 CBB        78.8925   62.4312   43.2868 c0         1 CLA     -0.395200
      8 CBC        71.4247   56.4350   42.0279 a3         1 CLA     -0.037700
      9 CBD        75.5658   56.4938   34.3203 a1         1 CLA     -0.053900
     10 NB         76.7372   60.5479   39.4301 nm         1 CLA     -0.295700
     11 OBD        73.4930   55.1385   33.8907 o2         1 CLA     -0.494600
     12 CGA        79.6314   57.4169   32.1870 c4         1 CLA      0.827000
     13 CGD        76.5541   55.3100   34.1723 c4         1 CLA      0.655300
     14 ND         74.2865   58.0626   37.3668 nm         1 CLA     -0.291600
     15 CED        77.2152   53.1560   34.8770 a3         1 CLA      0.005400
     16 CHA        75.7668   57.4919   35.4883 cs         1 CLA     -0.123800
     17 CHB        78.5826   60.6082   37.8449 aa         1 CLA     -0.291900
     18 CHC        75.4413   60.6975   41.4921 aa         1 CLA     -0.090400
     19 CHD        72.3551   57.8985   38.8952 aa         1 CLA     -0.052000
     20 CMA        80.5839   58.9347   35.9603 a3         1 CLA     -0.230700
     21 CMB        80.0134   62.3279   40.1480 a3         1 CLA     -0.180800
     22 CMC        73.0710   59.9932   43.4441 a3         1 CLA     -0.134000
     23 CMD        71.4041   55.7502   36.8460 a3         1 CLA     -0.141100
     24 C1         80.7018   55.3525   33.1522 a2         1 CLA      0.023000
     25 C1A        76.8165   58.3915   35.6460 ac         1 CLA     -0.015100
     26 C1B        78.0035   60.9731   39.0177 cr         1 CLA      0.054700
     27 C1C        74.3001   60.0379   41.1429 cn         1 CLA     -0.005600
     28 C1D        73.0104   57.5730   37.6968 ap         1 CLA     -0.047300
     29 O1A        79.5969   56.8958   31.0937 o2         1 CLA     -0.610800
     30 O1D        77.5108   55.3180   33.4458 o2         1 CLA     -0.558200
     31 C2         81.5738   55.1462   34.3352 c8         1 CLA     -0.325100
     32 C2A        78.1728   58.4748   34.8300 a1         1 CLA      0.098600
     33 C2B        78.5967   61.7525   40.1138 cb         1 CLA      0.088500
     34 C2C        73.1165   59.6902   42.0081 cb         1 CLA      0.053700
     35 C2D        72.6367   56.5096   36.7224 cb         1 CLA      0.058900
     36 O2A        80.3596   56.8304   33.2197 o1         1 CLA     -0.437200
     37 O2D        76.3586   54.3096   35.0797 o1         1 CLA     -0.357600
     38 C3         82.6280   54.3042   34.3777 c5         1 CLA      0.031200
     39 C3A        79.0901   59.4020   35.6777 a1         1 CLA      0.166800
     40 C3B        77.6767   61.7742   41.1510 cb         1 CLA      0.035000
     41 C3C        72.3423   58.7574   41.2402 cb         1 CLA     -0.089900
     42 C3D        73.6427   56.4662   35.8235 cb         1 CLA     -0.035900
     43 C4         82.4082   52.9727   34.8940 a3         1 CLA     -0.053300
     44 C4A        78.1676   59.7227   36.8901 ac         1 CLA      0.001800
     45 C4B        76.5188   61.0294   40.6976 cn         1 CLA     -0.020900
     46 C4C        72.8614   58.7261   39.9592 cr         1 CLA     -0.044400
     47 C4D        74.6003   57.4484   36.2724 c6         1 CLA     -0.046000
     48 C5         84.0945   54.7464   34.1379 a2         1 CLA     -0.070400
     49 C6         84.5739   56.1053   34.5246 a2         1 CLA      0.043900
     50 C7         84.4536   56.1719   36.0406 a2         1 CLA     -0.150000
     51 C8         85.0077   57.5142   36.6746 a1         1 CLA      0.064200
     52 C9         86.4500   57.8747   36.3347 a3         1 CLA     -0.259300
     53 C10        84.7455   57.4552   38.1511 a2         1 CLA     -0.071900
     54 C11        83.3068   57.4713   38.6818 a2         1 CLA      0.014500
     55 C12        83.3040   57.4668   40.2127 a2         1 CLA     -0.112100
     56 C13        81.9004   57.1949   40.9128 a1         1 CLA      0.089200
     57 C14        80.9318   58.3393   40.6850 a3         1 CLA     -0.239100
     58 C15        82.0452   56.8069   42.4592 a2         1 CLA     -0.102200
     59 C16        82.6550   57.9494   43.3697 a2         1 CLA      0.023900
     60 C17        83.0142   57.4595   44.8103 a2         1 CLA     -0.105700
     61 C18        83.6634   58.4872   45.7462 a1         1 CLA      0.206800
     62 C19        82.8954   59.8169   45.7940 a3         1 CLA     -0.280100
     63 C20        83.8546   57.9282   47.2428 a3         1 CLA     -0.280100
     64 NC         74.0657   59.4682   39.9023 nx         1 CLA     -0.309200
     65 MG         75.4482   59.4308   38.3072 mg         1 CLA      0.895000
     66 HMD3       71.2359   55.2007   35.9101 dc         1 CLA      0.064300
     67 HMD2       71.6232   55.0811   37.6111 dc         1 CLA      0.064300
     68 HMD1       70.6396   56.5208   37.0107 dc         1 CLA      0.064300
     69 HMC3       73.9967   59.5279   43.9484 dc         1 CLA      0.052100
     70 HMC2       73.0155   61.0985   43.6230 dc         1 CLA      0.052100
     71 HMC1       72.2372   59.5934   43.9696 dc         1 CLA      0.052100
     72 HMB3       80.7316   61.7102   40.6767 dc         1 CLA      0.063600
     73 HMB2       80.2877   62.5960   39.1024 dc         1 CLA      0.063600
     74 HMB1       79.9202   63.2037   40.8031 dc         1 CLA      0.063600
     75 HMA3       81.0771   59.7168   36.4883 dc         1 CLA      0.058300
     76 HMA2       80.6112   58.0110   36.5338 dc         1 CLA      0.058300
     77 HMA1       80.9728   58.7920   34.9168 dc         1 CLA      0.058300
     78 HED3       77.2003   52.7837   33.8340 dc         1 CLA      0.079300
     79 HED2       78.2548   53.4131   35.1568 dc         1 CLA      0.079300
     80 HED1       76.9289   52.3600   35.5047 dc         1 CLA      0.079300
     81 HBC3       71.9452   56.2989   42.9240 dc         1 CLA      0.016300
     82 HBC2       70.4800   55.9298   42.2666 dc         1 CLA      0.016300
     83 HBC1       71.8370   55.9136   41.1782 dc         1 CLA      0.016300
     84 HBB2       78.7808   62.6942   44.3304 da         1 CLA      0.183000
     85 HBB1       79.7851   61.9484   43.0090 da         1 CLA      0.183000
     86 HBA2       78.7936   59.2308   31.5168 dc         1 CLA      0.029400
     87 HBA1       79.9288   59.4446   32.8692 dc         1 CLA      0.029400
     88 HAC2       70.7892   58.2579   42.7223 dc         1 CLA      0.029300
     89 HAC1       70.2897   57.9886   41.0429 dc         1 CLA      0.029300
     90 HAA2       77.1543   58.2086   32.9475 dc         1 CLA      0.028700
     91 HAA1       77.4064   59.9152   33.3523 dc         1 CLA      0.028700
     92 H203       84.5763   58.5876   47.7379 dc         1 CLA      0.065600
     93 H202       82.9165   57.8328   47.8124 dc         1 CLA      0.065600
     94 H201       84.3275   56.8766   47.1773 dc         1 CLA      0.065600
     95 H193       82.8040   60.2396   44.8045 dc         1 CLA      0.065600
     96 H192       81.9495   59.8673   46.2055 dc         1 CLA      0.065600
     97 H191       83.4726   60.4563   46.4216 dc         1 CLA      0.065600
     98 H172       82.0734   57.1901   45.2344 dc         1 CLA      0.027600
     99 H171       83.6666   56.6024   44.8444 dc         1 CLA      0.027600
    100 H162       83.5234   58.3990   42.8912 dc         1 CLA      0.002900
    101 H161       81.9539   58.7649   43.4770 dc         1 CLA      0.002900
    102 H152       81.0258   56.5925   42.9356 dc         1 CLA      0.029100
    103 H151       82.7530   56.0005   42.5768 dc         1 CLA      0.029100
    104 H143       80.6270   58.5185   39.6350 dc         1 CLA      0.063600
    105 H142       80.0216   58.0854   41.2281 dc         1 CLA      0.063600
    106 H141       81.3508   59.2836   41.0259 dc         1 CLA      0.063600
    107 H122       83.9313   56.6797   40.5294 dc         1 CLA      0.032500
    108 H121       83.7374   58.4653   40.5387 dc         1 CLA      0.032500
    109 H112       82.8722   58.3942   38.2253 dc         1 CLA      0.006600
    110 H111       82.7229   56.5810   38.3708 dc         1 CLA      0.006600
    111 H102       85.2385   56.6062   38.5457 dc         1 CLA      0.024100
    112 H101       85.1924   58.3724   38.5965 dc         1 CLA      0.024100
    113 HHD        71.4193   57.3299   39.1249 da         1 CLA      0.174300
    114 HHC        75.3866   61.1190   42.5241 da         1 CLA      0.136800
    115 HHB        79.5501   61.1282   37.7562 da         1 CLA      0.138300
    116 HBD        75.3906   57.0210   33.4397 dc         1 CLA      0.107700
    117 HAB        76.8937   62.7818   42.9838 da         1 CLA      0.155200
    118 H93        86.4903   58.1918   35.3016 dc         1 CLA      0.069500
    119 H92        86.8282   58.6294   36.9514 dc         1 CLA      0.069500
    120 H91        87.0412   56.9981   36.4054 dc         1 CLA      0.069500
    121 H8         84.4291   58.3748   36.2846 dc         1 CLA      0.029300
    122 H72        83.3973   55.9466   36.4347 dc         1 CLA      0.044400
    123 H71        85.0034   55.2488   36.3720 dc         1 CLA      0.044400
    124 H62        85.6746   56.2723   34.3914 dc         1 CLA      0.015600
    125 H61        84.0094   56.9676   34.1006 dc         1 CLA      0.015600
    126 H52        84.7745   53.9936   34.5567 dc         1 CLA      0.033200
    127 H51        84.1885   54.7414   33.0740 dc         1 CLA      0.033200
    128 H43        83.1199   52.6169   35.6385 dc         1 CLA      0.037000
    129 H42        81.4284   53.0184   35.3608 dc         1 CLA      0.037000
    130 H41        82.4534   52.2683   34.0728 dc         1 CLA      0.037000
    131 H3A        79.2555   60.3170   35.1524 dc         1 CLA      0.041100
    132 H2A        78.4751   57.3977   34.8778 dc         1 CLA      0.083100
    133 H2         81.3024   55.6235   35.3047 da         1 CLA      0.180900
    134 H18        84.5976   58.7345   45.3467 dc         1 CLA     -0.003900
    135 H13        81.5709   56.2858   40.3750 dc         1 CLA      0.019700
    136 H12        79.8114   54.6635   33.3580 dc         1 CLA      0.120400
    137 H11        81.1903   55.0707   32.2180 dc         1 CLA      0.120400
    138 C1         68.3815   61.2457   49.2373 Z1         2 LUT      0.509236
    139 C2         68.0147   61.8961   50.6129 Z2         2 LUT     -0.434695
    140 C3         66.5875   62.3134   50.7147 Z3         2 LUT      0.437453
    141 O3         66.3489   63.0423   51.8558 S1         2 LUT     -0.547129
    142 C4         66.2134   63.2605   49.5824 Z4         2 LUT     -0.468603
    143 C5         66.9076   63.0402   48.2409 Z5         2 LUT      0.279246
    144 C6         67.8047   62.0318   48.0855 Z6         2 LUT     -0.305473
    145 C7         68.4451   61.6773   46.8575 Z7         2 LUT      0.069402
    146 C8         68.8695   62.4630   45.8341 Z8         2 LUT     -0.191631
    147 C9         69.4927   62.2753   44.4935 Z9         2 LUT      0.196698
    148 C10        70.3018   63.2580   43.8849 Y1         2 LUT     -0.208611
    149 C11        71.1405   63.1371   42.7034 Y2         2 LUT      0.030784
    150 C12        72.1999   63.9383   42.3476 Y3         2 LUT     -0.220316
    151 C13        73.1271   63.7115   41.2936 Y4         2 LUT      0.215937
    152 C14        74.3329   64.4171   41.4415 Y5         2 LUT     -0.185793
    153 C15        75.2965   64.5339   40.4250 Y6         2 LUT     -0.057835
    154 C16        67.7810   59.8170   49.1334 Y7         2 LUT     -0.405615
    155 C17        69.9529   61.0032   49.1516 Y7         2 LUT     -0.405615
    156 C18        66.3809   63.9337   47.1064 Y9         2 LUT     -0.369639
    157 C19        69.4707   60.9116   43.8917 W1         2 LUT     -0.333362
    158 C20        72.8277   62.9187   40.0172 W2         2 LUT     -0.323439
    159 C21        86.7971   65.8379   34.0883 Z1         2 LUT      0.406104
    160 C22        87.4472   65.4353   32.7754 Z2         2 LUT     -0.404965
    161 C23        87.5101   66.5306   31.7375 Z3         2 LUT      0.391255
    162 O23        88.1469   66.0424   30.4996 S1         2 LUT     -0.528210
    163 C24        86.1742   67.2710   31.7224 W6         2 LUT     -0.258361
    164 C25        85.1677   67.2093   32.5792 Z5         2 LUT      0.133546
    165 C26        85.2763   66.2468   33.7997 W8         2 LUT     -0.147008
    166 C27        84.6166   66.8682   35.0704 Z7         2 LUT      0.023843
    167 C28        83.6694   66.2426   35.7942 Z8         2 LUT     -0.216987
    168 C29        82.9014   66.7124   36.8547 Z9         2 LUT      0.206524
    169 C30        81.8153   66.0494   37.4439 Y1         2 LUT     -0.215556
    170 C31        80.8886   66.3244   38.5189 Y2         2 LUT      0.025142
    171 C32        79.7153   65.5600   38.6959 Y3         2 LUT     -0.212209
    172 C33        78.8931   65.6614   39.8643 Y4         2 LUT      0.240937
    173 C34        77.6533   65.0086   39.8283 Y5         2 LUT     -0.218862
    174 C35        76.5888   64.9916   40.7654 Y6         2 LUT     -0.023547
    175 C36        87.6913   66.9618   34.7109 Y7         2 LUT     -0.393485
    176 C37        86.7969   64.6460   35.0258 Y7         2 LUT     -0.393485
    177 C38        83.9691   68.0483   32.3826 Y9         2 LUT     -0.387526
    178 C39        83.3523   67.9182   37.5841 W1         2 LUT     -0.322618
    179 C40        79.3039   66.6036   40.9815 W2         2 LUT     -0.358472
    180 H403       79.3284   67.6526   40.6845 R7         2 LUT      0.097720
    181 H402       78.4901   66.4762   41.7710 R7         2 LUT      0.097720
    182 H401       80.3113   66.4766   41.3740 R7         2 LUT      0.097720
    183 H393       83.2092   68.8620   36.9539 R4         2 LUT      0.082505
    184 H392       82.7018   68.2350   38.4256 R4         2 LUT      0.082505
    185 H391       84.3927   67.9601   38.0249 R4         2 LUT      0.082505
    186 H383       83.5566   67.6391   31.5305 R1         2 LUT      0.104030
    187 H382       83.2911   68.0977   33.2495 R1         2 LUT      0.104030
    188 H381       84.3391   69.0311   31.9928 R1         2 LUT      0.104030
    189 H373       87.7780   64.6014   35.5229 T4         2 LUT      0.089537
    190 H372       86.1779   64.7031   35.8955 T4         2 LUT      0.089537
    191 H371       86.5703   63.7241   34.5640 T4         2 LUT      0.089537
    192 H363       88.5741   66.5260   35.0972 T4         2 LUT      0.089537
    193 H362       87.8758   67.7241   33.9461 T4         2 LUT      0.089537
    194 H361       87.1731   67.3902   35.5718 T4         2 LUT      0.089537
    195 H222       88.4312   65.0194   33.0182 U2         2 LUT      0.127376
    196 H221       86.8002   64.6762   32.3115 U2         2 LUT      0.127376
    197 H203       73.6368   62.1220   39.9133 R7         2 LUT      0.087068
    198 H202       71.8528   62.3289   39.9346 R7         2 LUT      0.087068
    199 H201       72.8894   63.4963   39.1102 R7         2 LUT      0.087068
    200 H193       70.1240   60.2401   44.4529 R4         2 LUT      0.089716
    201 H192       68.4886   60.5140   43.9140 R4         2 LUT      0.089716
    202 H191       69.7892   60.8422   42.8933 R4         2 LUT      0.089716
    203 H183       67.0434   64.7948   46.9362 R1         2 LUT      0.094572
    204 H182       66.1576   63.4268   46.1465 R1         2 LUT      0.094572
    205 H181       65.3581   64.3095   47.3180 R1         2 LUT      0.094572
    206 H173       70.2980   60.2479   49.9115 T4         2 LUT      0.093752
    207 H172       70.2798   60.5268   48.2527 T4         2 LUT      0.093752
    208 H171       70.4589   61.8966   49.4385 T4         2 LUT      0.093752
    209 H163       68.2362   59.1820   49.8776 T4         2 LUT      0.093752
    210 H162       66.7189   59.8618   49.3027 T4         2 LUT      0.093752
    211 H161       67.9238   59.3096   48.2249 T4         2 LUT      0.093752
    212 HO3        66.4281   62.4702   52.6282 Q1         2 LUT      0.300121
    213 H8         68.8603   63.5247   46.1975 U7         2 LUT      0.080784
    214 H7         68.6559   60.6452   46.6463 U6         2 LUT      0.042190
    215 H42        65.1246   63.1866   49.3624 U5         2 LUT      0.145166
    216 H41        66.4113   64.3030   49.7418 U5         2 LUT      0.145166
    217 H35        76.5328   65.5149   41.6927 T3         2 LUT      0.077919
    218 H34        77.3778   64.5277   38.9323 T2         2 LUT      0.073626
    219 H32        79.4374   64.7957   37.9630 T1         2 LUT      0.092510
    220 H31        81.2639   67.0401   39.1980 U9         2 LUT      0.070048
    221 H30        81.5470   65.1209   36.8347 U8         2 LUT      0.085442
    222 H3         65.8909   61.4424   50.5400 U3         2 LUT     -0.031596
    223 H28        83.4702   65.2119   35.4553 U7         2 LUT      0.084728
    224 H27        84.9088   67.9690   35.2624 U6         2 LUT      0.087291
    225 H26        84.6392   65.4015   33.4285 Q6         2 LUT      0.075325
    226 H24        86.2037   67.9601   30.8495 Q5         2 LUT      0.094482
    227 H23        88.2747   67.2095   32.1070 U3         2 LUT     -0.024869
    228 H22        68.0856   61.2814   51.4835 U2         2 LUT      0.127376
    229 H21        68.6951   62.8219   50.6825 U2         2 LUT      0.127376
    230 H15        75.0138   64.0397   39.5147 T3         2 LUT      0.093200
    231 H14        74.4158   65.1136   42.2321 T2         2 LUT      0.068865
    232 H12        72.4513   64.7542   42.9975 T1         2 LUT      0.095507
    233 H11        70.8871   62.3786   41.9365 U9         2 LUT      0.068930
    234 H10        70.3537   64.1752   44.5119 U8         2 LUT      0.083911
    235 H1         87.6355   65.3980   30.0092 Q1         2 LUT      0.297311
@<TRIPOS>BOND
    1     6     1 1
    2     7     2 1
    3     8     3 1
    4     9     4 1
    5    11     4 1
    6    12     6 1
    7    13     9 1
    8    16     9 1
    9    25     5 1
   10    25    16 1
   11    26    10 1
   12    26    17 1
   13    27    18 1
   14    28    14 1
   15    28    19 1
   16    29    12 1
   17    30    13 1
   18    31    24 1
   19    32     1 1
   20    32    25 1
   21    33    21 1
   22    33    26 1
   23    34    22 1
   24    34    27 1
   25    35    23 1
   26    35    28 1
   27    36    12 1
   28    36    24 1
   29    37    13 1
   30    37    15 1
   31    38    31 1
   32    39    20 1
   33    39    32 1
   34    40     2 1
   35    40    33 1
   36    41     3 1
   37    41    34 1
   38    42     4 1
   39    42    35 1
   40    43    38 1
   41    44     5 1
   42    44    17 1
   43    44    39 1
   44    45    10 1
   45    45    18 1
   46    45    40 1
   47    46    19 1
   48    46    41 1
   49    47    14 1
   50    47    16 1
   51    47    42 1
   52    48    38 1
   53    49    48 1
   54    50    49 1
   55    51    50 1
   56    52    51 1
   57    53    51 1
   58    54    53 1
   59    55    54 1
   60    56    55 1
   61    57    56 1
   62    58    56 1
   63    59    58 1
   64    60    59 1
   65    61    60 1
   66    62    61 1
   67    63    61 1
   68    64    27 1
   69    64    46 1
   70    65     5 1
   71    65    10 1
   72    65    64 1
   73    65    14 1
   74    66    23 1
   75    67    23 1
   76    68    23 1
   77    69    22 1
   78    70    22 1
   79    71    22 1
   80    72    21 1
   81    73    21 1
   82    74    21 1
   83    75    20 1
   84    76    20 1
   85    77    20 1
   86    78    15 1
   87    79    15 1
   88    80    15 1
   89    81     8 1
   90    82     8 1
   91    83     8 1
   92    84     7 1
   93    85     7 1
   94    86     6 1
   95    87     6 1
   96    88     3 1
   97    89     3 1
   98    90     1 1
   99    91     1 1
  100    92    63 1
  101    93    63 1
  102    94    63 1
  103    95    62 1
  104    96    62 1
  105    97    62 1
  106    98    60 1
  107    99    60 1
  108   100    59 1
  109   101    59 1
  110   102    58 1
  111   103    58 1
  112   104    57 1
  113   105    57 1
  114   106    57 1
  115   107    55 1
  116   108    55 1
  117   109    54 1
  118   110    54 1
  119   111    53 1
  120   112    53 1
  121   113    19 1
  122   114    18 1
  123   115    17 1
  124   116     9 1
  125   117     2 1
  126   118    52 1
  127   119    52 1
  128   120    52 1
  129   121    51 1
  130   122    50 1
  131   123    50 1
  132   124    49 1
  133   125    49 1
  134   126    48 1
  135   127    48 1
  136   128    43 1
  137   129    43 1
  138   130    43 1
  139   131    39 1
  140   132    32 1
  141   133    31 1
  142   134    61 1
  143   135    56 1
  144   136    24 1
  145   137    24 1
  146   139   138 1
  147   140   139 1
  148   141   140 1
  149   142   140 1
  150   143   142 1
  151   144   138 1
  152   144   143 1
  153   145   144 1
  154   146   145 1
  155   147   146 1
  156   148   147 1
  157   149   148 1
  158   150   149 1
  159   151   150 1
  160   152   151 1
  161   153   152 1
  162   154   138 1
  163   155   138 1
  164   156   143 1
  165   157   147 1
  166   158   151 1
  167   160   159 1
  168   161   160 1
  169   162   161 1
  170   163   161 1
  171   164   163 1
  172   165   159 1
  173   165   164 1
  174   166   165 1
  175   167   166 1
  176   168   167 1
  177   169   168 1
  178   170   169 1
  179   171   170 1
  180   172   171 1
  181   173   172 1
  182   174   153 1
  183   174   173 1
  184   175   159 1
  185   176   159 1
  186   177   164 1
  187   178   168 1
  188   179   172 1
  189   180   179 1
  190   181   179 1
  191   182   179 1
  192   183   178 1
  193   184   178 1
  194   185   178 1
  195   186   177 1
  196   187   177 1
  197   188   177 1
  198   189   176 1
  199   190   176 1
  200   191   176 1
  201   192   175 1
  202   193   175 1
  203   194   175 1
  204   195   160 1
  205   196   160 1
  206   197   158 1
  207   198   158 1
  208   199   158 1
  209   200   157 1
  210   201   157 1
  211   202   157 1
  212   203   156 1
  213   204   156 1
  214   205   156 1
  215   206   155 1
  216   207   155 1
  217   208   155 1
  218   209   154 1
  219   210   154 1
  220   211   154 1
  221   212   141 1
  222   213   146 1
  223   214   145 1
  224   215   142 1
  225   216   142 1
  226   217   174 1
  227   218   173 1
  228   219   171 1
  229   220   170 1
  230   221   169 1
  231   222   140 1
  232   223   167 1
  233   224   166 1
  234   225   165 1
  235   226   163 1
  236   227   161 1
  237   228   139 1
  238   229   139 1
  239   230   153 1
  240   231   152 1
  241   232   150 1
  242   233   149 1
  243   234   148 1
  244   235   162 1
  245   65    153 1
  246   65    174 1
@<TRIPOS>SUBSTRUCTURE
      1 CLA               1 ****               0 ****  **** 
      2 LUT             138 ****               0 ****  **** 
