@<TRIPOS>MOLECULE
Cpptraj generated mol2 file.
  235   246     2     0     0
SMALL
USER_CHARGES


@<TRIPOS>ATOM
      1 CAA        79.7991   58.2454   34.5765 a2         1 CLA     -0.055900
      2 CAB        79.8292   62.2944   43.5174 c8         1 CLA     -0.148500
      3 CAC        72.9216   58.2860   43.1380 a2         1 CLA     -0.012600
      4 CAD        75.3611   56.0347   35.7684 ck         1 CLA      0.398800
      5 NA         78.7478   58.6828   38.0506 ns         1 CLA     -0.225500
      6 CBA        80.9985   57.9967   33.6236 a2         1 CLA     -0.135000
      7 CBB        81.0025   62.8615   43.9017 c0         1 CLA     -0.395200
      8 CBC        73.2312   57.3023   44.2082 a3         1 CLA     -0.037700
      9 CBD        76.9066   56.4425   35.4320 a1         1 CLA     -0.053900
     10 NB         78.6800   60.3090   40.5980 nm         1 CLA     -0.295700
     11 OBD        74.6387   55.3707   35.0203 o2         1 CLA     -0.494600
     12 CGA        81.2228   56.5528   33.2176 c4         1 CLA      0.827000
     13 CGD        77.7251   55.1252   35.3982 c4         1 CLA      0.655300
     14 ND         75.9317   58.0584   38.6172 nm         1 CLA     -0.291600
     15 CED        78.9724   53.5146   36.5248 a3         1 CLA      0.005400
     16 CHA        77.3498   57.3409   36.5670 cs         1 CLA     -0.123800
     17 CHB        80.6589   59.8466   39.2042 aa         1 CLA     -0.291900
     18 CHC        77.3689   60.6565   42.5751 aa         1 CLA     -0.090400
     19 CHD        74.0701   57.9927   40.2205 aa         1 CLA     -0.052000
     20 CMA        82.1428   57.6230   37.4352 a3         1 CLA     -0.230700
     21 CMB        82.0559   61.9684   40.8745 a3         1 CLA     -0.180800
     22 CMC        75.1332   60.2174   44.6349 a3         1 CLA     -0.134000
     23 CMD        72.7599   56.0331   38.0532 a3         1 CLA     -0.141100
     24 C1         81.7285   54.4424   34.0465 a2         1 CLA      0.023000
     25 C1A        78.5851   57.9669   36.8374 ac         1 CLA     -0.015100
     26 C1B        80.0252   60.5055   40.3102 cr         1 CLA      0.054700
     27 C1C        76.2231   59.9928   42.2640 cn         1 CLA     -0.005600
     28 C1D        74.6343   57.6374   38.9526 ap         1 CLA     -0.047300
     29 O1A        81.0396   56.1170   32.0993 o2         1 CLA     -0.610800
     30 O1D        78.3660   54.8053   34.3621 o2         1 CLA     -0.558200
     31 C2         82.7159   54.0682   35.1203 c8         1 CLA     -0.325100
     32 C2A        79.8992   57.7351   36.0750 a1         1 CLA      0.098600
     33 C2B        80.6584   61.4648   41.2236 cb         1 CLA      0.088500
     34 C2C        75.1096   59.7811   43.2148 cb         1 CLA      0.053700
     35 C2D        74.0979   56.7612   37.9820 cb         1 CLA      0.058900
     36 O2A        81.6195   55.8717   34.2734 o1         1 CLA     -0.437200
     37 O2D        77.9475   54.5235   36.5974 o1         1 CLA     -0.357600
     38 C3         83.8695   53.3242   34.9342 c5         1 CLA      0.031200
     39 C3A        80.9557   58.5179   37.0393 a1         1 CLA      0.166800
     40 C3B        79.6900   61.6228   42.2398 cb         1 CLA      0.035000
     41 C3C        74.1645   58.9521   42.5526 cb         1 CLA     -0.089900
     42 C3D        75.0427   56.5682   36.9999 cb         1 CLA     -0.035900
     43 C4         83.9598   51.8425   35.0418 a3         1 CLA     -0.053300
     44 C4A        80.0686   59.0174   38.2041 ac         1 CLA      0.001800
     45 C4B        78.4878   60.8544   41.8133 cn         1 CLA     -0.020900
     46 C4C        74.6506   58.7210   41.2510 cr         1 CLA     -0.044400
     47 C4D        76.2048   57.3878   37.4180 c6         1 CLA     -0.046000
     48 C5         85.0243   54.0932   34.4196 a2         1 CLA     -0.070400
     49 C6         85.4602   55.3372   35.2899 a2         1 CLA      0.043900
     50 C7         85.7028   55.0456   36.7578 a2         1 CLA     -0.150000
     51 C8         86.2144   56.2688   37.5345 a1         1 CLA      0.064200
     52 C9         87.5943   56.8821   37.0696 a3         1 CLA     -0.259300
     53 C10        86.3406   55.8930   39.0590 a2         1 CLA     -0.071900
     54 C11        86.6929   57.0406   40.0575 a2         1 CLA      0.014500
     55 C12        86.9510   56.5086   41.4915 a2         1 CLA     -0.112100
     56 C13        87.2201   57.5637   42.6562 a1         1 CLA      0.089200
     57 C14        88.5074   58.3987   42.3552 a3         1 CLA     -0.239100
     58 C15        86.9817   57.1039   44.0928 a2         1 CLA     -0.102200
     59 C16        87.2532   58.1711   45.1797 a2         1 CLA      0.023900
     60 C17        86.7052   57.7065   46.5029 a2         1 CLA     -0.105700
     61 C18        86.5457   58.8675   47.5816 a1         1 CLA      0.206800
     62 C19        85.9067   58.4464   48.8982 a3         1 CLA     -0.280100
     63 C20        87.8939   59.5495   47.8268 a3         1 CLA     -0.280100
     64 NC         75.8419   59.4279   41.1284 nx         1 CLA     -0.309200
     65 MG         77.1417   59.2414   39.4600 mg         1 CLA      0.895000
     66 HMD3       72.0678   56.6374   37.4914 dc         1 CLA      0.064300
     67 HMD2       72.8384   55.0058   37.6036 dc         1 CLA      0.064300
     68 HMD1       72.4252   55.8977   39.0899 dc         1 CLA      0.064300
     69 HMC3       75.7673   59.6168   45.3131 dc         1 CLA      0.052100
     70 HMC2       75.3656   61.2850   44.6608 dc         1 CLA      0.052100
     71 HMC1       74.0956   60.0486   45.0747 dc         1 CLA      0.052100
     72 HMB3       82.8196   61.3968   41.4066 dc         1 CLA      0.063600
     73 HMB2       82.3980   61.8175   39.8225 dc         1 CLA      0.063600
     74 HMB1       82.1259   63.0632   41.1166 dc         1 CLA      0.063600
     75 HMA3       81.8607   56.9898   38.2262 dc         1 CLA      0.058300
     76 HMA2       82.5472   57.1281   36.5690 dc         1 CLA      0.058300
     77 HMA1       82.9487   58.1847   37.9278 dc         1 CLA      0.058300
     78 HED3       79.9290   54.0201   36.5743 dc         1 CLA      0.079300
     79 HED2       78.8180   52.9134   37.4265 dc         1 CLA      0.079300
     80 HED1       79.0393   52.8374   35.6772 dc         1 CLA      0.079300
     81 HBC3       73.9103   56.5287   43.9071 dc         1 CLA      0.016300
     82 HBC2       73.6259   57.9415   44.9961 dc         1 CLA      0.016300
     83 HBC1       72.3365   56.6519   44.5061 dc         1 CLA      0.016300
     84 HBB2       80.9837   63.6918   44.6816 da         1 CLA      0.183000
     85 HBB1       81.9907   62.6228   43.4264 da         1 CLA      0.183000
     86 HBA2       80.7484   58.5649   32.7473 dc         1 CLA      0.029400
     87 HBA1       81.8283   58.3601   34.0870 dc         1 CLA      0.029400
     88 HAC2       72.2857   58.9913   43.6910 dc         1 CLA      0.029300
     89 HAC1       72.4341   57.7796   42.2854 dc         1 CLA      0.029300
     90 HAA2       78.8918   57.8437   34.1553 dc         1 CLA      0.028700
     91 HAA1       79.6451   59.2994   34.6621 dc         1 CLA      0.028700
     92 H203       87.6804   60.4683   48.3340 dc         1 CLA      0.065600
     93 H202       88.5022   59.0873   48.7005 dc         1 CLA      0.065600
     94 H201       88.4622   59.7737   46.9544 dc         1 CLA      0.065600
     95 H193       84.8216   58.3260   48.8277 dc         1 CLA      0.065600
     96 H192       86.3871   57.5314   49.2791 dc         1 CLA      0.065600
     97 H191       86.1093   59.1893   49.6792 dc         1 CLA      0.065600
     98 H172       85.6930   57.3658   46.4078 dc         1 CLA      0.027600
     99 H171       87.3541   56.8716   46.7941 dc         1 CLA      0.027600
    100 H162       88.3017   58.4288   45.3109 dc         1 CLA      0.002900
    101 H161       86.7907   59.1452   44.8334 dc         1 CLA      0.002900
    102 H152       85.9519   56.7883   44.1282 dc         1 CLA      0.029100
    103 H151       87.5683   56.1509   44.2968 dc         1 CLA      0.029100
    104 H143       88.4948   59.4594   42.7522 dc         1 CLA      0.063600
    105 H142       89.3489   57.8918   42.8139 dc         1 CLA      0.063600
    106 H141       88.6740   58.3986   41.2897 dc         1 CLA      0.063600
    107 H122       86.0427   56.0003   41.7533 dc         1 CLA      0.032500
    108 H121       87.7250   55.7359   41.5089 dc         1 CLA      0.032500
    109 H112       87.6542   57.3821   39.6859 dc         1 CLA      0.006600
    110 H111       85.9976   57.8645   39.9774 dc         1 CLA      0.006600
    111 H102       85.3105   55.5743   39.3033 dc         1 CLA      0.024100
    112 H101       87.0702   55.0768   39.1233 dc         1 CLA      0.024100
    113 HHD        73.0347   57.6149   40.1786 da         1 CLA      0.174300
    114 HHC        77.4894   60.9648   43.5407 da         1 CLA      0.136800
    115 HHB        81.7636   59.8968   39.1852 da         1 CLA      0.138300
    116 HBD        76.7980   56.9796   34.4940 dc         1 CLA      0.107700
    117 HAB        78.9172   62.5149   44.0831 da         1 CLA      0.155200
    118 H93        87.8910   56.7671   36.0479 dc         1 CLA      0.069500
    119 H92        87.5146   57.9364   37.3590 dc         1 CLA      0.069500
    120 H91        88.3737   56.5090   37.7095 dc         1 CLA      0.069500
    121 H8         85.4558   57.0305   37.4585 dc         1 CLA      0.029300
    122 H72        84.8116   54.6845   37.1942 dc         1 CLA      0.044400
    123 H71        86.3769   54.2264   36.8029 dc         1 CLA      0.044400
    124 H62        86.3337   55.7753   34.7310 dc         1 CLA      0.015600
    125 H61        84.7621   56.1224   35.1385 dc         1 CLA      0.015600
    126 H52        85.9131   53.5004   34.2947 dc         1 CLA      0.033200
    127 H51        84.6997   54.4205   33.4013 dc         1 CLA      0.033200
    128 H43        83.8089   51.3877   34.0641 dc         1 CLA      0.037000
    129 H42        84.9467   51.5204   35.3776 dc         1 CLA      0.037000
    130 H41        83.2062   51.4284   35.7980 dc         1 CLA      0.037000
    131 H3A        81.4452   59.2600   36.4528 dc         1 CLA      0.041100
    132 H2A        80.2564   56.7097   36.0334 dc         1 CLA      0.083100
    133 H2         82.4913   54.5949   36.0720 da         1 CLA      0.180900
    134 H18        85.9310   59.6672   47.3188 dc         1 CLA     -0.003900
    135 H13        86.4523   58.2988   42.4324 dc         1 CLA      0.019700
    136 H12        80.7623   53.9084   34.1816 dc         1 CLA      0.120400
    137 H11        82.0436   54.1677   32.9671 dc         1 CLA      0.120400
    138 C1         69.4074   61.8993   50.4196 Z1         2 LUT      0.509236
    139 C2         67.9301   61.6679   50.9619 Z2         2 LUT     -0.434695
    140 C3         67.1781   62.8376   51.4636 Z3         2 LUT      0.437453
    141 O3         67.2694   63.0786   52.9128 S1         2 LUT     -0.547129
    142 C4         67.5746   64.1953   50.7964 Z4         2 LUT     -0.468603
    143 C5         68.2562   63.9769   49.4598 Z5         2 LUT      0.279246
    144 C6         69.2766   63.0113   49.2983 Z6         2 LUT     -0.305473
    145 C7         69.6992   62.6738   48.0006 Z7         2 LUT      0.069402
    146 C8         70.9446   62.9442   47.5950 Z8         2 LUT     -0.191631
    147 C9         71.4628   62.6821   46.2334 Z9         2 LUT      0.196698
    148 C10        72.3870   63.5190   45.6455 Y1         2 LUT     -0.208611
    149 C11        72.9884   63.2913   44.4009 Y2         2 LUT      0.030784
    150 C12        73.9944   63.9495   43.8013 Y3         2 LUT     -0.220316
    151 C13        74.8082   63.6425   42.6940 Y4         2 LUT      0.215937
    152 C14        75.9852   64.3462   42.4973 Y5         2 LUT     -0.185793
    153 C15        77.1415   64.2051   41.6345 Y6         2 LUT     -0.057835
    154 C16        70.0397   60.6459   50.0037 Y7         2 LUT     -0.405615
    155 C17        70.1836   62.3529   51.6423 Y7         2 LUT     -0.405615
    156 C18        67.5616   64.7039   48.4042 Y9         2 LUT     -0.369639
    157 C19        70.7187   61.5699   45.4752 W1         2 LUT     -0.333362
    158 C20        74.0818   62.8469   41.6029 W2         2 LUT     -0.323439
    159 C21        88.6148   66.0242   35.3740 Z1         2 LUT      0.406104
    160 C22        89.2837   65.4721   34.0120 Z2         2 LUT     -0.404965
    161 C23        89.2171   66.3766   32.7415 Z3         2 LUT      0.391255
    162 O23        89.8764   65.6720   31.6731 S1         2 LUT     -0.528210
    163 C24        87.7999   66.9283   32.6820 W6         2 LUT     -0.258361
    164 C25        86.8458   66.9338   33.6709 Z5         2 LUT      0.133546
    165 C26        87.0549   66.2937   35.0447 W8         2 LUT     -0.147008
    166 C27        86.2909   66.8980   36.1775 Z7         2 LUT      0.023843
    167 C28        85.0961   66.4561   36.6771 Z8         2 LUT     -0.216987
    168 C29        84.3786   66.8315   37.9155 Z9         2 LUT      0.206524
    169 C30        83.3706   65.9632   38.3166 Y1         2 LUT     -0.215556
    170 C31        82.4934   66.2281   39.4699 Y2         2 LUT      0.025142
    171 C32        81.4669   65.4142   39.7654 Y3         2 LUT     -0.212209
    172 C33        80.5941   65.6022   40.8467 Y4         2 LUT      0.240937
    173 C34        79.3855   64.9011   40.8282 Y5         2 LUT     -0.218862
    174 C35        78.2550   65.0504   41.7196 Y6         2 LUT     -0.023547
    175 C36        89.3876   67.2851   35.6761 Y7         2 LUT     -0.393485
    176 C37        88.9413   64.9279   36.3832 Y7         2 LUT     -0.393485
    177 C38        85.4637   67.4791   33.3249 Y9         2 LUT     -0.387526
    178 C39        84.7233   68.0459   38.7277 W1         2 LUT     -0.322618
    179 C40        80.9448   66.4202   42.0958 W2         2 LUT     -0.358472
    180 H403       80.2796   66.7820   42.8256 R7         2 LUT      0.097720
    181 H402       81.5265   65.6488   42.7194 R7         2 LUT      0.097720
    182 H401       81.5604   67.2603   41.8789 R7         2 LUT      0.097720
    183 H393       84.7944   67.7193   39.7885 R4         2 LUT      0.082505
    184 H392       85.6774   68.4251   38.4696 R4         2 LUT      0.082505
    185 H391       84.0284   68.8779   38.7253 R4         2 LUT      0.082505
    186 H383       85.0189   68.0857   34.1349 R1         2 LUT      0.104030
    187 H382       85.6005   68.0988   32.4196 R1         2 LUT      0.104030
    188 H381       84.8035   66.6862   32.9590 R1         2 LUT      0.104030
    189 H373       89.9824   64.7046   36.5380 T4         2 LUT      0.089537
    190 H372       88.5848   65.3694   37.3652 T4         2 LUT      0.089537
    191 H371       88.3745   64.0346   36.2166 T4         2 LUT      0.089537
    192 H363       88.9042   67.7123   36.5665 T4         2 LUT      0.089537
    193 H362       90.4428   67.1111   35.9725 T4         2 LUT      0.089537
    194 H361       89.3602   68.1435   34.9771 T4         2 LUT      0.089537
    195 H222       90.3605   65.3964   34.1587 U2         2 LUT      0.127376
    196 H221       88.7408   64.6113   33.6943 U2         2 LUT      0.127376
    197 H203       74.8013   62.7223   40.6874 R7         2 LUT      0.087068
    198 H202       73.8552   61.8014   41.8485 R7         2 LUT      0.087068
    199 H201       73.0878   63.3017   41.2919 R7         2 LUT      0.087068
    200 H193       69.6930   61.7684   45.1689 R4         2 LUT      0.089716
    201 H192       71.2397   61.2025   44.5947 R4         2 LUT      0.089716
    202 H191       70.7182   60.6277   46.1481 R4         2 LUT      0.089716
    203 H183       66.6737   64.1749   48.0071 R1         2 LUT      0.094572
    204 H182       67.2622   65.6942   48.8139 R1         2 LUT      0.094572
    205 H181       68.1576   65.0290   47.5775 R1         2 LUT      0.094572
    206 H173       71.2710   62.4377   51.4912 T4         2 LUT      0.093752
    207 H172       69.9453   63.3615   51.9721 T4         2 LUT      0.093752
    208 H171       69.9627   61.7551   52.5328 T4         2 LUT      0.093752
    209 H163       70.0282   59.9045   50.7405 T4         2 LUT      0.093752
    210 H162       69.4280   60.2187   49.2171 T4         2 LUT      0.093752
    211 H161       71.0381   60.7447   49.7060 T4         2 LUT      0.093752
    212 HO3        66.8201   62.3685   53.4103 Q1         2 LUT      0.300121
    213 H8         71.5513   63.3693   48.3344 U7         2 LUT      0.080784
    214 H7         68.9720   62.2809   47.3617 U6         2 LUT      0.042190
    215 H42        66.6441   64.8511   50.7090 U5         2 LUT      0.145166
    216 H41        68.2433   64.6779   51.4493 U5         2 LUT      0.145166
    217 H35        78.3322   65.9007   42.3645 T3         2 LUT      0.077919
    218 H34        79.0720   64.2952   39.9831 T2         2 LUT      0.073626
    219 H32        81.1754   64.6462   39.0443 T1         2 LUT      0.092510
    220 H31        82.5778   67.1023   40.0812 U9         2 LUT      0.070048
    221 H30        83.1262   65.1010   37.6708 U8         2 LUT      0.085442
    222 H3         66.1621   62.7360   51.0692 U3         2 LUT     -0.031596
    223 H28        84.6491   65.6441   36.1294 U7         2 LUT      0.084728
    224 H27        86.7396   67.6210   36.8018 U6         2 LUT      0.087291
    225 H26        86.6163   65.2729   34.9485 Q6         2 LUT      0.075325
    226 H24        87.5551   67.3145   31.6552 Q5         2 LUT      0.094482
    227 H23        89.8181   67.3141   33.0637 U3         2 LUT     -0.024869
    228 H22        67.3357   61.2855   50.0495 U2         2 LUT      0.127376
    229 H21        67.8017   60.8990   51.7359 U2         2 LUT      0.127376
    230 H15        77.0925   63.3505   40.9423 T3         2 LUT      0.093200
    231 H14        76.2402   65.0306   43.2758 T2         2 LUT      0.068865
    232 H12        74.3876   64.8157   44.3222 T1         2 LUT      0.095507
    233 H11        72.7929   62.4151   43.7502 U9         2 LUT      0.068930
    234 H10        72.8046   64.3947   46.0926 U8         2 LUT      0.083911
    235 H1         89.6552   66.0214   30.7964 Q1         2 LUT      0.297311
@<TRIPOS>BOND
    1     6     1 1
    2     7     2 1
    3     8     3 1
    4     9     4 1
    5    11     4 1
    6    12     6 1
    7    13     9 1
    8    16     9 1
    9    25     5 1
   10    25    16 1
   11    26    10 1
   12    26    17 1
   13    27    18 1
   14    28    14 1
   15    28    19 1
   16    29    12 1
   17    30    13 1
   18    31    24 1
   19    32     1 1
   20    32    25 1
   21    33    21 1
   22    33    26 1
   23    34    22 1
   24    34    27 1
   25    35    23 1
   26    35    28 1
   27    36    12 1
   28    36    24 1
   29    37    13 1
   30    37    15 1
   31    38    31 1
   32    39    20 1
   33    39    32 1
   34    40     2 1
   35    40    33 1
   36    41     3 1
   37    41    34 1
   38    42     4 1
   39    42    35 1
   40    43    38 1
   41    44     5 1
   42    44    17 1
   43    44    39 1
   44    45    10 1
   45    45    18 1
   46    45    40 1
   47    46    19 1
   48    46    41 1
   49    47    14 1
   50    47    16 1
   51    47    42 1
   52    48    38 1
   53    49    48 1
   54    50    49 1
   55    51    50 1
   56    52    51 1
   57    53    51 1
   58    54    53 1
   59    55    54 1
   60    56    55 1
   61    57    56 1
   62    58    56 1
   63    59    58 1
   64    60    59 1
   65    61    60 1
   66    62    61 1
   67    63    61 1
   68    64    27 1
   69    64    46 1
   70    65     5 1
   71    65    10 1
   72    65    64 1
   73    65    14 1
   74    66    23 1
   75    67    23 1
   76    68    23 1
   77    69    22 1
   78    70    22 1
   79    71    22 1
   80    72    21 1
   81    73    21 1
   82    74    21 1
   83    75    20 1
   84    76    20 1
   85    77    20 1
   86    78    15 1
   87    79    15 1
   88    80    15 1
   89    81     8 1
   90    82     8 1
   91    83     8 1
   92    84     7 1
   93    85     7 1
   94    86     6 1
   95    87     6 1
   96    88     3 1
   97    89     3 1
   98    90     1 1
   99    91     1 1
  100    92    63 1
  101    93    63 1
  102    94    63 1
  103    95    62 1
  104    96    62 1
  105    97    62 1
  106    98    60 1
  107    99    60 1
  108   100    59 1
  109   101    59 1
  110   102    58 1
  111   103    58 1
  112   104    57 1
  113   105    57 1
  114   106    57 1
  115   107    55 1
  116   108    55 1
  117   109    54 1
  118   110    54 1
  119   111    53 1
  120   112    53 1
  121   113    19 1
  122   114    18 1
  123   115    17 1
  124   116     9 1
  125   117     2 1
  126   118    52 1
  127   119    52 1
  128   120    52 1
  129   121    51 1
  130   122    50 1
  131   123    50 1
  132   124    49 1
  133   125    49 1
  134   126    48 1
  135   127    48 1
  136   128    43 1
  137   129    43 1
  138   130    43 1
  139   131    39 1
  140   132    32 1
  141   133    31 1
  142   134    61 1
  143   135    56 1
  144   136    24 1
  145   137    24 1
  146   139   138 1
  147   140   139 1
  148   141   140 1
  149   142   140 1
  150   143   142 1
  151   144   138 1
  152   144   143 1
  153   145   144 1
  154   146   145 1
  155   147   146 1
  156   148   147 1
  157   149   148 1
  158   150   149 1
  159   151   150 1
  160   152   151 1
  161   153   152 1
  162   154   138 1
  163   155   138 1
  164   156   143 1
  165   157   147 1
  166   158   151 1
  167   160   159 1
  168   161   160 1
  169   162   161 1
  170   163   161 1
  171   164   163 1
  172   165   159 1
  173   165   164 1
  174   166   165 1
  175   167   166 1
  176   168   167 1
  177   169   168 1
  178   170   169 1
  179   171   170 1
  180   172   171 1
  181   173   172 1
  182   174   153 1
  183   174   173 1
  184   175   159 1
  185   176   159 1
  186   177   164 1
  187   178   168 1
  188   179   172 1
  189   180   179 1
  190   181   179 1
  191   182   179 1
  192   183   178 1
  193   184   178 1
  194   185   178 1
  195   186   177 1
  196   187   177 1
  197   188   177 1
  198   189   176 1
  199   190   176 1
  200   191   176 1
  201   192   175 1
  202   193   175 1
  203   194   175 1
  204   195   160 1
  205   196   160 1
  206   197   158 1
  207   198   158 1
  208   199   158 1
  209   200   157 1
  210   201   157 1
  211   202   157 1
  212   203   156 1
  213   204   156 1
  214   205   156 1
  215   206   155 1
  216   207   155 1
  217   208   155 1
  218   209   154 1
  219   210   154 1
  220   211   154 1
  221   212   141 1
  222   213   146 1
  223   214   145 1
  224   215   142 1
  225   216   142 1
  226   217   174 1
  227   218   173 1
  228   219   171 1
  229   220   170 1
  230   221   169 1
  231   222   140 1
  232   223   167 1
  233   224   166 1
  234   225   165 1
  235   226   163 1
  236   227   161 1
  237   228   139 1
  238   229   139 1
  239   230   153 1
  240   231   152 1
  241   232   150 1
  242   233   149 1
  243   234   148 1
  244   235   162 1
  245   65    153 1
  246   65    174 1
@<TRIPOS>SUBSTRUCTURE
      1 CLA               1 ****               0 ****  **** 
      2 LUT             138 ****               0 ****  **** 
