@<TRIPOS>MOLECULE
Cpptraj generated mol2 file.
  235   246     2     0     0
SMALL
USER_CHARGES


@<TRIPOS>ATOM
      1 CAA        78.6758   57.1039   34.6142 a2         1 CLA     -0.055900
      2 CAB        78.8568   61.6026   43.4967 c8         1 CLA     -0.148500
      3 CAC        71.7957   57.7526   43.4174 a2         1 CLA     -0.012600
      4 CAD        74.3240   54.9693   36.0700 ck         1 CLA      0.398800
      5 NA         77.5591   58.0718   38.0158 ns         1 CLA     -0.225500
      6 CBA        79.9436   56.8288   33.7121 a2         1 CLA     -0.135000
      7 CBB        80.0336   61.9297   44.0002 c0         1 CLA     -0.395200
      8 CBC        71.6439   56.2248   43.3986 a3         1 CLA     -0.037700
      9 CBD        75.8635   55.3745   35.8452 a1         1 CLA     -0.053900
     10 NB         77.4991   59.7197   40.5558 nm         1 CLA     -0.295700
     11 OBD        73.6799   54.2225   35.3369 o2         1 CLA     -0.494600
     12 CGA        80.2524   55.4129   33.4433 c4         1 CLA      0.827000
     13 CGD        76.7410   54.1253   35.6596 c4         1 CLA      0.655300
     14 ND         74.7913   57.1553   38.8238 nm         1 CLA     -0.291600
     15 CED        77.5440   52.2092   36.6927 a3         1 CLA      0.005400
     16 CHA        76.2122   56.3812   36.8949 cs         1 CLA     -0.123800
     17 CHB        79.3802   59.5146   38.9060 aa         1 CLA     -0.291900
     18 CHC        76.3246   60.0903   42.5592 aa         1 CLA     -0.090400
     19 CHD        73.0217   57.1622   40.5090 aa         1 CLA     -0.052000
     20 CMA        80.9618   57.2357   37.5888 a3         1 CLA     -0.230700
     21 CMB        80.9675   61.3456   40.9039 a3         1 CLA     -0.180800
     22 CMC        74.1818   59.7757   44.7358 a3         1 CLA     -0.134000
     23 CMD        71.4303   55.4672   38.2641 a3         1 CLA     -0.141100
     24 C1         80.9990   53.3869   34.5332 a2         1 CLA      0.023000
     25 C1A        77.4655   57.1291   37.0410 ac         1 CLA     -0.015100
     26 C1B        78.7880   60.0262   40.0494 cr         1 CLA      0.054700
     27 C1C        75.1239   59.3366   42.3036 cn         1 CLA     -0.005600
     28 C1D        73.5213   56.7135   39.2489 ap         1 CLA     -0.047300
     29 O1A        79.8305   54.8033   32.5072 o2         1 CLA     -0.610800
     30 O1D        77.3060   53.7785   34.6190 o2         1 CLA     -0.558200
     31 C2         81.2805   53.0822   35.9617 c8         1 CLA     -0.325100
     32 C2A        78.7566   56.9256   36.2211 a1         1 CLA      0.098600
     33 C2B        79.5110   60.8383   41.0060 cb         1 CLA      0.088500
     34 C2C        74.0715   59.1904   43.3153 cb         1 CLA      0.053700
     35 C2D        72.8841   55.9101   38.2416 cb         1 CLA      0.058900
     36 O2A        80.9770   54.8891   34.4583 o1         1 CLA     -0.437200
     37 O2D        76.8367   53.4282   36.8643 o1         1 CLA     -0.357600
     38 C3         82.1477   52.1542   36.3801 c5         1 CLA      0.031200
     39 C3A        79.7106   57.9040   36.9840 a1         1 CLA      0.166800
     40 C3B        78.6575   60.9675   42.1273 cb         1 CLA      0.035000
     41 C3C        73.1348   58.2833   42.7627 cb         1 CLA     -0.089900
     42 C3D        73.9353   55.6493   37.2805 cb         1 CLA     -0.035900
     43 C4         81.9579   50.6672   36.5202 a3         1 CLA     -0.053300
     44 C4A        78.8256   58.5945   37.9980 ac         1 CLA      0.001800
     45 C4B        77.4681   60.2338   41.8036 cn         1 CLA     -0.020900
     46 C4C        73.5747   58.0294   41.4383 cr         1 CLA     -0.044400
     47 C4D        75.0386   56.4626   37.6907 c6         1 CLA     -0.046000
     48 C5         83.5669   52.6949   36.4707 a2         1 CLA     -0.070400
     49 C6         83.8165   53.8942   37.4439 a2         1 CLA      0.043900
     50 C7         85.3431   53.9083   37.6734 a2         1 CLA     -0.150000
     51 C8         85.9084   55.2336   38.2273 a1         1 CLA      0.064200
     52 C9         87.5291   55.2078   38.1280 a3         1 CLA     -0.259300
     53 C10        85.5765   55.3635   39.8150 a2         1 CLA     -0.071900
     54 C11        84.1034   55.5472   40.1660 a2         1 CLA      0.014500
     55 C12        83.9769   56.3311   41.5289 a2         1 CLA     -0.112100
     56 C13        82.5411   56.5405   42.0882 a1         1 CLA      0.089200
     57 C14        81.6899   57.6525   41.4184 a3         1 CLA     -0.239100
     58 C15        82.7962   56.8790   43.6530 a2         1 CLA     -0.102200
     59 C16        82.9735   58.3569   44.1329 a2         1 CLA      0.023900
     60 C17        82.6612   58.3813   45.6480 a2         1 CLA     -0.105700
     61 C18        82.9514   59.7062   46.4009 a1         1 CLA      0.206800
     62 C19        81.7396   60.5132   46.7749 a3         1 CLA     -0.280100
     63 C20        83.7029   59.4356   47.7247 a3         1 CLA     -0.280100
     64 NC         74.8451   58.6148   41.2239 nx         1 CLA     -0.309200
     65 MG         76.1271   58.4482   39.6038 mg         1 CLA      0.895000
     66 HMD3       71.1984   54.8200   39.0866 dc         1 CLA      0.064300
     67 HMD2       70.7370   56.3076   38.2090 dc         1 CLA      0.064300
     68 HMD1       71.2659   54.8603   37.3487 dc         1 CLA      0.064300
     69 HMC3       74.7659   59.0423   45.3004 dc         1 CLA      0.052100
     70 HMC2       74.6500   60.7078   44.7060 dc         1 CLA      0.052100
     71 HMC1       73.1920   59.8819   45.1582 dc         1 CLA      0.052100
     72 HMB3       81.5809   60.5207   41.3081 dc         1 CLA      0.063600
     73 HMB2       81.1996   61.4327   39.8490 dc         1 CLA      0.063600
     74 HMB1       81.0542   62.2669   41.4937 dc         1 CLA      0.063600
     75 HMA3       81.5903   58.0071   38.0602 dc         1 CLA      0.058300
     76 HMA2       80.9190   56.3951   38.2853 dc         1 CLA      0.058300
     77 HMA1       81.4866   56.9608   36.6958 dc         1 CLA      0.058300
     78 HED3       77.1329   51.5918   35.8639 dc         1 CLA      0.079300
     79 HED2       78.5133   52.5098   36.4980 dc         1 CLA      0.079300
     80 HED1       77.5517   51.6739   37.5529 dc         1 CLA      0.079300
     81 HBC3       72.5402   55.7296   43.8329 dc         1 CLA      0.016300
     82 HBC2       70.9106   56.0601   44.1629 dc         1 CLA      0.016300
     83 HBC1       71.3311   55.9223   42.4349 dc         1 CLA      0.016300
     84 HBB2       80.1476   62.2508   45.0464 da         1 CLA      0.183000
     85 HBB1       80.9665   61.6681   43.4940 da         1 CLA      0.183000
     86 HBA2       79.7552   57.3305   32.8259 dc         1 CLA      0.029400
     87 HBA1       80.8031   57.3293   34.2696 dc         1 CLA      0.029400
     88 HAC2       71.8047   57.9544   44.4703 dc         1 CLA      0.029300
     89 HAC1       70.9116   58.2472   43.0682 dc         1 CLA      0.029300
     90 HAA2       77.8363   56.5702   34.1777 dc         1 CLA      0.028700
     91 HAA1       78.4779   58.1241   34.3949 dc         1 CLA      0.028700
     92 H203       84.5924   58.8037   47.5804 dc         1 CLA      0.065600
     93 H202       84.0219   60.4118   48.0554 dc         1 CLA      0.065600
     94 H201       83.1229   58.9668   48.4248 dc         1 CLA      0.065600
     95 H193       81.9779   61.5516   46.9970 dc         1 CLA      0.065600
     96 H192       81.1971   60.4999   45.8948 dc         1 CLA      0.065600
     97 H191       81.2244   60.1627   47.6419 dc         1 CLA      0.065600
     98 H172       81.5994   58.0934   45.8215 dc         1 CLA      0.027600
     99 H171       83.3898   57.6373   46.0063 dc         1 CLA      0.027600
    100 H162       84.0486   58.6941   43.8559 dc         1 CLA      0.002900
    101 H161       82.2857   59.0095   43.5872 dc         1 CLA      0.002900
    102 H152       81.8536   56.6652   44.1695 dc         1 CLA      0.029100
    103 H151       83.6146   56.3016   44.1324 dc         1 CLA      0.029100
    104 H143       81.1841   57.2901   40.5167 dc         1 CLA      0.063600
    105 H142       80.8406   57.8334   42.0863 dc         1 CLA      0.063600
    106 H141       82.2572   58.5381   41.1643 dc         1 CLA      0.063600
    107 H122       84.4593   55.5873   42.2053 dc         1 CLA      0.032500
    108 H121       84.5494   57.2647   41.4736 dc         1 CLA      0.032500
    109 H112       83.6363   56.2029   39.4048 dc         1 CLA      0.006600
    110 H111       83.6435   54.5448   40.2310 dc         1 CLA      0.006600
    111 H102       85.9177   54.4571   40.3421 dc         1 CLA      0.024100
    112 H101       86.2288   56.1561   40.1187 dc         1 CLA      0.024100
    113 HHD        71.9607   56.9175   40.7645 da         1 CLA      0.174300
    114 HHC        76.3796   60.5175   43.5508 da         1 CLA      0.136800
    115 HHB        80.3600   59.8177   38.5690 da         1 CLA      0.138300
    116 HBD        75.9385   55.8479   34.8124 dc         1 CLA      0.107700
    117 HAB        77.9598   61.7961   44.0760 da         1 CLA      0.155200
    118 H93        87.9635   56.0158   38.7064 dc         1 CLA      0.069500
    119 H92        87.8603   54.2647   38.5494 dc         1 CLA      0.069500
    120 H91        87.7465   55.4875   37.0743 dc         1 CLA      0.069500
    121 H8         85.4784   56.0738   37.7659 dc         1 CLA      0.029300
    122 H72        85.6330   53.0294   38.2429 dc         1 CLA      0.044400
    123 H71        85.8052   53.8480   36.6390 dc         1 CLA      0.044400
    124 H62        83.3193   54.7863   37.0382 dc         1 CLA      0.015600
    125 H61        83.3931   53.6717   38.3865 dc         1 CLA      0.015600
    126 H52        84.1351   51.8065   36.8831 dc         1 CLA      0.033200
    127 H51        84.0053   52.7846   35.5391 dc         1 CLA      0.033200
    128 H43        80.9922   50.4366   36.0856 dc         1 CLA      0.037000
    129 H42        82.7723   50.2563   35.9158 dc         1 CLA      0.037000
    130 H41        81.8615   50.3966   37.5948 dc         1 CLA      0.037000
    131 H3A        80.0658   58.6245   36.2521 dc         1 CLA      0.041100
    132 H2A        79.0589   55.8661   36.3522 dc         1 CLA      0.083100
    133 H2         80.6790   53.5954   36.6615 da         1 CLA      0.180900
    134 H18        83.5648   60.3895   45.7897 dc         1 CLA     -0.003900
    135 H13        81.9302   55.5676   41.9319 dc         1 CLA      0.019700
    136 H12        80.0428   52.8635   34.3189 dc         1 CLA      0.120400
    137 H11        81.6665   52.9479   33.7939 dc         1 CLA      0.120400
    138 C1         67.9225   60.6748   50.4645 Z1         2 LUT      0.509236
    139 C2         66.5288   60.3674   51.0990 Z2         2 LUT     -0.434695
    140 C3         65.6521   61.5677   51.2914 Z3         2 LUT      0.437453
    141 O3         65.7489   62.1333   52.6354 S1         2 LUT     -0.547129
    142 C4         65.8650   62.6699   50.2084 Z4         2 LUT     -0.468603
    143 C5         66.6733   62.3662   49.0136 Z5         2 LUT      0.279246
    144 C6         67.7885   61.5351   49.1573 Z6         2 LUT     -0.305473
    145 C7         68.4201   60.9912   47.9170 Z7         2 LUT      0.069402
    146 C8         69.0368   61.6244   46.9562 Z8         2 LUT     -0.191631
    147 C9         69.6929   61.1413   45.7473 Z9         2 LUT      0.196698
    148 C10        70.6367   62.0254   45.2382 Y1         2 LUT     -0.208611
    149 C11        71.2579   61.8640   43.9586 Y2         2 LUT      0.030784
    150 C12        72.3845   62.5703   43.6055 Y3         2 LUT     -0.220316
    151 C13        73.2168   62.3700   42.4582 Y4         2 LUT      0.215937
    152 C14        74.3689   63.0744   42.5016 Y5         2 LUT     -0.185793
    153 C15        75.4432   63.0841   41.5119 Y6         2 LUT     -0.057835
    154 C16        68.5701   59.2908   50.3687 Y7         2 LUT     -0.405615
    155 C17        68.6223   61.4828   51.5022 Y7         2 LUT     -0.405615
    156 C18        66.0853   62.8263   47.7129 Y9         2 LUT     -0.369639
    157 C19        69.2014   59.9029   45.0809 W1         2 LUT     -0.333362
    158 C20        72.6389   61.5808   41.2726 W2         2 LUT     -0.323439
    159 C21        87.3068   64.8106   35.9994 Z1         2 LUT      0.406104
    160 C22        88.1364   64.2238   34.8532 Z2         2 LUT     -0.404965
    161 C23        88.4214   65.2074   33.7611 Z3         2 LUT      0.391255
    162 O23        89.3077   64.7001   32.7432 S1         2 LUT     -0.528210
    163 C24        87.1942   65.8608   33.3194 W6         2 LUT     -0.258361
    164 C25        86.0522   65.9444   33.9713 Z5         2 LUT      0.133546
    165 C26        85.9259   65.2268   35.3490 W8         2 LUT     -0.147008
    166 C27        84.9897   65.8541   36.3029 Z7         2 LUT      0.023843
    167 C28        83.8019   65.3812   36.7927 Z8         2 LUT     -0.216987
    168 C29        83.0292   65.8970   37.8909 Z9         2 LUT      0.206524
    169 C30        81.9791   65.1581   38.4268 Y1         2 LUT     -0.215556
    170 C31        81.0096   65.1838   39.5258 Y2         2 LUT      0.025142
    171 C32        79.9179   64.4364   39.7898 Y3         2 LUT     -0.212209
    172 C33        78.9037   64.4832   40.8496 Y4         2 LUT      0.240937
    173 C34        77.7234   63.7622   40.7739 Y5         2 LUT     -0.218862
    174 C35        76.5972   63.8198   41.7190 Y6         2 LUT     -0.023547
    175 C36        88.1364   65.8266   36.8810 Y7         2 LUT     -0.393485
    176 C37        87.0582   63.6388   37.0275 Y7         2 LUT     -0.393485
    177 C38        84.8912   66.7789   33.4502 Y9         2 LUT     -0.387526
    178 C39        83.4303   67.2179   38.4835 W1         2 LUT     -0.322618
    179 C40        78.9664   65.7086   41.7097 W2         2 LUT     -0.358472
    180 H403       77.9881   66.0536   41.9116 R7         2 LUT      0.097720
    181 H402       79.4264   65.4663   42.6787 R7         2 LUT      0.097720
    182 H401       79.4848   66.5005   41.2409 R7         2 LUT      0.097720
    183 H393       83.8680   68.0114   37.8116 R4         2 LUT      0.082505
    184 H392       82.5338   67.6671   38.9594 R4         2 LUT      0.082505
    185 H391       84.1809   67.1611   39.3230 R4         2 LUT      0.082505
    186 H383       84.3616   67.3568   34.1858 R1         2 LUT      0.104030
    187 H382       85.3255   67.5470   32.7223 R1         2 LUT      0.104030
    188 H381       84.1008   66.1554   32.9589 R1         2 LUT      0.104030
    189 H373       88.0526   63.2696   37.2742 T4         2 LUT      0.089537
    190 H372       86.6435   64.1382   37.9125 T4         2 LUT      0.089537
    191 H371       86.5355   62.7036   36.6401 T4         2 LUT      0.089537
    192 H363       87.5047   66.2307   37.6856 T4         2 LUT      0.089537
    193 H362       89.1151   65.4535   37.3596 T4         2 LUT      0.089537
    194 H361       88.4674   66.6995   36.2621 T4         2 LUT      0.089537
    195 H222       89.1511   63.9433   35.2532 U2         2 LUT      0.127376
    196 H221       87.6200   63.3220   34.5044 U2         2 LUT      0.127376
    197 H203       73.4309   61.2081   40.5530 R7         2 LUT      0.087068
    198 H202       72.1776   60.6805   41.5920 R7         2 LUT      0.087068
    199 H201       72.0333   62.1928   40.6877 R7         2 LUT      0.087068
    200 H193       68.7981   60.1195   44.0961 R4         2 LUT      0.089716
    201 H192       70.0368   59.1683   44.9579 R4         2 LUT      0.089716
    202 H191       68.4570   59.3490   45.6152 R4         2 LUT      0.089716
    203 H183       66.1994   61.9419   47.0301 R1         2 LUT      0.094572
    204 H182       65.0987   63.2326   47.7468 R1         2 LUT      0.094572
    205 H181       66.7329   63.5648   47.2317 R1         2 LUT      0.094572
    206 H173       69.7046   61.6927   51.1398 T4         2 LUT      0.093752
    207 H172       68.1723   62.4352   51.7486 T4         2 LUT      0.093752
    208 H171       68.7406   60.9666   52.4251 T4         2 LUT      0.093752
    209 H163       68.7545   58.7992   51.2962 T4         2 LUT      0.093752
    210 H162       67.8777   58.6814   49.8122 T4         2 LUT      0.093752
    211 H161       69.5313   59.2040   49.7685 T4         2 LUT      0.093752
    212 HO3        65.4233   61.5383   53.3445 Q1         2 LUT      0.300121
    213 H8         69.1658   62.6810   47.1813 U7         2 LUT      0.080784
    214 H7         68.2785   59.9632   47.6922 U6         2 LUT      0.042190
    215 H42        64.9492   63.0721   49.8596 U5         2 LUT      0.145166
    216 H41        66.3106   63.5672   50.7091 U5         2 LUT      0.145166
    217 H35        76.6635   64.2474   42.6882 T3         2 LUT      0.077919
    218 H34        77.7341   63.0625   39.9708 T2         2 LUT      0.073626
    219 H32        79.7257   63.7095   38.9935 T1         2 LUT      0.092510
    220 H31        81.2635   65.9604   40.2820 U9         2 LUT      0.070048
    221 H30        81.8923   64.1989   37.9512 U8         2 LUT      0.085442
    222 H3         64.6192   61.2469   51.1138 U3         2 LUT     -0.031596
    223 H28        83.4293   64.5176   36.3632 U7         2 LUT      0.084728
    224 H27        85.3851   66.7711   36.7323 U6         2 LUT      0.087291
    225 H26        85.5021   64.2878   34.9377 Q6         2 LUT      0.075325
    226 H24        87.3226   66.3382   32.3869 Q5         2 LUT      0.094482
    227 H23        88.9901   65.9575   34.2239 U3         2 LUT     -0.024869
    228 H22        65.9938   59.8342   50.3219 U2         2 LUT      0.127376
    229 H21        66.5011   59.7238   51.9542 U2         2 LUT      0.127376
    230 H15        75.5968   62.4393   40.6179 T3         2 LUT      0.093200
    231 H14        74.6029   63.6554   43.3541 T2         2 LUT      0.068865
    232 H12        72.7506   63.2564   44.3863 T1         2 LUT      0.095507
    233 H11        70.9384   61.0362   43.3346 U9         2 LUT      0.068930
    234 H10        70.9537   62.8513   45.7385 U8         2 LUT      0.083911
    235 H1         88.7947   64.1239   32.1115 Q1         2 LUT      0.297311
@<TRIPOS>BOND
    1     6     1 1
    2     7     2 1
    3     8     3 1
    4     9     4 1
    5    11     4 1
    6    12     6 1
    7    13     9 1
    8    16     9 1
    9    25     5 1
   10    25    16 1
   11    26    10 1
   12    26    17 1
   13    27    18 1
   14    28    14 1
   15    28    19 1
   16    29    12 1
   17    30    13 1
   18    31    24 1
   19    32     1 1
   20    32    25 1
   21    33    21 1
   22    33    26 1
   23    34    22 1
   24    34    27 1
   25    35    23 1
   26    35    28 1
   27    36    12 1
   28    36    24 1
   29    37    13 1
   30    37    15 1
   31    38    31 1
   32    39    20 1
   33    39    32 1
   34    40     2 1
   35    40    33 1
   36    41     3 1
   37    41    34 1
   38    42     4 1
   39    42    35 1
   40    43    38 1
   41    44     5 1
   42    44    17 1
   43    44    39 1
   44    45    10 1
   45    45    18 1
   46    45    40 1
   47    46    19 1
   48    46    41 1
   49    47    14 1
   50    47    16 1
   51    47    42 1
   52    48    38 1
   53    49    48 1
   54    50    49 1
   55    51    50 1
   56    52    51 1
   57    53    51 1
   58    54    53 1
   59    55    54 1
   60    56    55 1
   61    57    56 1
   62    58    56 1
   63    59    58 1
   64    60    59 1
   65    61    60 1
   66    62    61 1
   67    63    61 1
   68    64    27 1
   69    64    46 1
   70    65     5 1
   71    65    10 1
   72    65    64 1
   73    65    14 1
   74    66    23 1
   75    67    23 1
   76    68    23 1
   77    69    22 1
   78    70    22 1
   79    71    22 1
   80    72    21 1
   81    73    21 1
   82    74    21 1
   83    75    20 1
   84    76    20 1
   85    77    20 1
   86    78    15 1
   87    79    15 1
   88    80    15 1
   89    81     8 1
   90    82     8 1
   91    83     8 1
   92    84     7 1
   93    85     7 1
   94    86     6 1
   95    87     6 1
   96    88     3 1
   97    89     3 1
   98    90     1 1
   99    91     1 1
  100    92    63 1
  101    93    63 1
  102    94    63 1
  103    95    62 1
  104    96    62 1
  105    97    62 1
  106    98    60 1
  107    99    60 1
  108   100    59 1
  109   101    59 1
  110   102    58 1
  111   103    58 1
  112   104    57 1
  113   105    57 1
  114   106    57 1
  115   107    55 1
  116   108    55 1
  117   109    54 1
  118   110    54 1
  119   111    53 1
  120   112    53 1
  121   113    19 1
  122   114    18 1
  123   115    17 1
  124   116     9 1
  125   117     2 1
  126   118    52 1
  127   119    52 1
  128   120    52 1
  129   121    51 1
  130   122    50 1
  131   123    50 1
  132   124    49 1
  133   125    49 1
  134   126    48 1
  135   127    48 1
  136   128    43 1
  137   129    43 1
  138   130    43 1
  139   131    39 1
  140   132    32 1
  141   133    31 1
  142   134    61 1
  143   135    56 1
  144   136    24 1
  145   137    24 1
  146   139   138 1
  147   140   139 1
  148   141   140 1
  149   142   140 1
  150   143   142 1
  151   144   138 1
  152   144   143 1
  153   145   144 1
  154   146   145 1
  155   147   146 1
  156   148   147 1
  157   149   148 1
  158   150   149 1
  159   151   150 1
  160   152   151 1
  161   153   152 1
  162   154   138 1
  163   155   138 1
  164   156   143 1
  165   157   147 1
  166   158   151 1
  167   160   159 1
  168   161   160 1
  169   162   161 1
  170   163   161 1
  171   164   163 1
  172   165   159 1
  173   165   164 1
  174   166   165 1
  175   167   166 1
  176   168   167 1
  177   169   168 1
  178   170   169 1
  179   171   170 1
  180   172   171 1
  181   173   172 1
  182   174   153 1
  183   174   173 1
  184   175   159 1
  185   176   159 1
  186   177   164 1
  187   178   168 1
  188   179   172 1
  189   180   179 1
  190   181   179 1
  191   182   179 1
  192   183   178 1
  193   184   178 1
  194   185   178 1
  195   186   177 1
  196   187   177 1
  197   188   177 1
  198   189   176 1
  199   190   176 1
  200   191   176 1
  201   192   175 1
  202   193   175 1
  203   194   175 1
  204   195   160 1
  205   196   160 1
  206   197   158 1
  207   198   158 1
  208   199   158 1
  209   200   157 1
  210   201   157 1
  211   202   157 1
  212   203   156 1
  213   204   156 1
  214   205   156 1
  215   206   155 1
  216   207   155 1
  217   208   155 1
  218   209   154 1
  219   210   154 1
  220   211   154 1
  221   212   141 1
  222   213   146 1
  223   214   145 1
  224   215   142 1
  225   216   142 1
  226   217   174 1
  227   218   173 1
  228   219   171 1
  229   220   170 1
  230   221   169 1
  231   222   140 1
  232   223   167 1
  233   224   166 1
  234   225   165 1
  235   226   163 1
  236   227   161 1
  237   228   139 1
  238   229   139 1
  239   230   153 1
  240   231   152 1
  241   232   150 1
  242   233   149 1
  243   234   148 1
  244   235   162 1
  245   65    153 1
  246   65    174 1
@<TRIPOS>SUBSTRUCTURE
      1 CLA               1 ****               0 ****  **** 
      2 LUT             138 ****               0 ****  **** 
