@<TRIPOS>MOLECULE
Cpptraj generated mol2 file.
  235   246     2     0     0
SMALL
USER_CHARGES


@<TRIPOS>ATOM
      1 CAA        79.0725   58.9198   34.2499 a2         1 CLA     -0.055900
      2 CAB        79.2953   62.4662   43.3129 c8         1 CLA     -0.148500
      3 CAC        72.4913   58.2134   43.0458 a2         1 CLA     -0.012600
      4 CAD        74.6014   56.9381   35.1420 ck         1 CLA      0.398800
      5 NA         78.0969   59.0912   37.7198 ns         1 CLA     -0.225500
      6 CBA        80.1580   58.5971   33.2433 a2         1 CLA     -0.135000
      7 CBB        80.3587   62.1433   44.1409 c0         1 CLA     -0.395200
      8 CBC        72.5986   56.6368   43.1644 a3         1 CLA     -0.037700
      9 CBD        76.1349   57.3468   34.8529 a1         1 CLA     -0.053900
     10 NB         78.0276   60.7752   40.3226 nm         1 CLA     -0.295700
     11 OBD        73.9135   56.3662   34.3324 o2         1 CLA     -0.494600
     12 CGA        80.4615   57.2060   32.7757 c4         1 CLA      0.827000
     13 CGD        76.9595   56.1964   34.3860 c4         1 CLA      0.655300
     14 ND         75.2998   58.3491   38.3396 nm         1 CLA     -0.291600
     15 CED        77.5354   53.8753   34.7881 a3         1 CLA      0.005400
     16 CHA        76.6208   58.0043   36.1954 cs         1 CLA     -0.123800
     17 CHB        80.0046   60.1657   38.8368 aa         1 CLA     -0.291900
     18 CHC        76.7480   61.0426   42.3397 aa         1 CLA     -0.090400
     19 CHD        73.6243   58.0014   40.0521 aa         1 CLA     -0.052000
     20 CMA        81.3457   57.9082   37.0948 a3         1 CLA     -0.230700
     21 CMB        81.5086   62.1979   40.8186 a3         1 CLA     -0.180800
     22 CMC        74.4160   60.4639   44.4571 a3         1 CLA     -0.134000
     23 CMD        72.0407   56.7804   37.5308 a3         1 CLA     -0.141100
     24 C1         81.3803   55.0848   33.4100 a2         1 CLA      0.023000
     25 C1A        77.8478   58.4581   36.5272 ac         1 CLA     -0.015100
     26 C1B        79.4047   60.8335   40.0112 cr         1 CLA      0.054700
     27 C1C        75.6590   60.1315   42.1838 cn         1 CLA     -0.005600
     28 C1D        74.0267   57.8906   38.7397 ap         1 CLA     -0.047300
     29 O1A        80.2111   56.7828   31.6514 o2         1 CLA     -0.610800
     30 O1D        77.6219   56.1490   33.3447 o2         1 CLA     -0.558200
     31 C2         81.9533   54.4141   34.6759 c8         1 CLA     -0.325100
     32 C2A        79.1523   58.2863   35.6343 a1         1 CLA      0.098600
     33 C2B        80.0584   61.7713   40.9247 cb         1 CLA      0.088500
     34 C2C        74.5509   59.8215   43.1083 cb         1 CLA      0.053700
     35 C2D        73.3613   57.3012   37.5800 cb         1 CLA      0.058900
     36 O2A        81.0461   56.4627   33.7827 o1         1 CLA     -0.437200
     37 O2D        76.7746   55.0671   35.1613 o1         1 CLA     -0.357600
     38 C3         82.8412   53.4116   34.4831 c5         1 CLA      0.031200
     39 C3A        80.1730   58.8790   36.5918 a1         1 CLA      0.166800
     40 C3B        79.1074   61.8659   41.9864 cb         1 CLA      0.035000
     41 C3C        73.7270   58.8319   42.4787 cb         1 CLA     -0.089900
     42 C3D        74.3376   57.3347   36.5365 cb         1 CLA     -0.035900
     43 C4         82.4452   51.9860   34.4266 a3         1 CLA     -0.053300
     44 C4A        79.4191   59.3623   37.8475 ac         1 CLA      0.001800
     45 C4B        77.8533   61.2826   41.5449 cn         1 CLA     -0.020900
     46 C4C        74.2577   58.7065   41.1438 cr         1 CLA     -0.044400
     47 C4D        75.5137   57.9696   37.0724 c6         1 CLA     -0.046000
     48 C5         84.2927   53.7514   34.2455 a2         1 CLA     -0.070400
     49 C6         84.8278   54.9696   35.0537 a2         1 CLA      0.043900
     50 C7         85.0568   54.6713   36.5597 a2         1 CLA     -0.150000
     51 C8         85.7562   55.7995   37.3813 a1         1 CLA      0.064200
     52 C9         87.2179   56.1024   36.9515 a3         1 CLA     -0.259300
     53 C10        85.6368   55.8064   38.9904 a2         1 CLA     -0.071900
     54 C11        84.2809   56.3080   39.4933 a2         1 CLA      0.014500
     55 C12        84.2299   56.4048   41.0130 a2         1 CLA     -0.112100
     56 C13        82.8381   56.7162   41.6918 a1         1 CLA      0.089200
     57 C14        82.3714   58.1458   41.3886 a3         1 CLA     -0.239100
     58 C15        82.7857   56.5058   43.2446 a2         1 CLA     -0.102200
     59 C16        83.6136   57.4825   44.1268 a2         1 CLA      0.023900
     60 C17        83.7567   56.9789   45.5211 a2         1 CLA     -0.105700
     61 C18        84.6004   57.8702   46.5251 a1         1 CLA      0.206800
     62 C19        84.3823   57.5674   48.0872 a3         1 CLA     -0.280100
     63 C20        86.1764   57.5958   46.4580 a3         1 CLA     -0.280100
     64 NC         75.4361   59.4504   40.9856 nx         1 CLA     -0.309200
     65 MG         76.6482   59.5315   39.3154 mg         1 CLA      0.895000
     66 HMD3       71.6123   56.3172   38.4038 dc         1 CLA      0.064300
     67 HMD2       71.3523   57.5009   37.0886 dc         1 CLA      0.064300
     68 HMD1       72.1810   56.0353   36.7545 dc         1 CLA      0.064300
     69 HMC3       73.9855   61.4324   44.5509 dc         1 CLA      0.052100
     70 HMC2       73.6921   59.8745   44.9990 dc         1 CLA      0.052100
     71 HMC1       75.4452   60.4303   44.9344 dc         1 CLA      0.052100
     72 HMB3       81.5421   62.3497   39.7179 dc         1 CLA      0.063600
     73 HMB2       81.6473   63.0750   41.4161 dc         1 CLA      0.063600
     74 HMB1       82.2147   61.4513   41.1122 dc         1 CLA      0.063600
     75 HMA3       81.9040   58.2280   37.9750 dc         1 CLA      0.058300
     76 HMA2       81.0177   56.8492   37.2744 dc         1 CLA      0.058300
     77 HMA1       82.1144   57.7191   36.3106 dc         1 CLA      0.058300
     78 HED3       78.5949   54.0195   35.0479 dc         1 CLA      0.079300
     79 HED2       77.0829   53.1630   35.4631 dc         1 CLA      0.079300
     80 HED1       77.3961   53.4816   33.7681 dc         1 CLA      0.079300
     81 HBC3       73.5357   56.3509   43.6841 dc         1 CLA      0.016300
     82 HBC2       71.7867   56.1538   43.6628 dc         1 CLA      0.016300
     83 HBC1       72.6743   56.1867   42.1499 dc         1 CLA      0.016300
     84 HBB2       80.3671   62.4241   45.2076 da         1 CLA      0.183000
     85 HBB1       81.2499   61.6239   43.7151 da         1 CLA      0.183000
     86 HBA2       79.9480   59.0966   32.2822 dc         1 CLA      0.029400
     87 HBA1       81.0478   58.8540   33.7091 dc         1 CLA      0.029400
     88 HAC2       72.2148   58.5996   44.0440 dc         1 CLA      0.029300
     89 HAC1       71.6872   58.4251   42.3950 dc         1 CLA      0.029300
     90 HAA2       78.1614   58.6272   33.8162 dc         1 CLA      0.028700
     91 HAA1       78.9774   60.0309   34.3968 dc         1 CLA      0.028700
     92 H203       86.5263   57.8342   45.4790 dc         1 CLA      0.065600
     93 H202       86.7238   58.1466   47.1611 dc         1 CLA      0.065600
     94 H201       86.4221   56.5567   46.5019 dc         1 CLA      0.065600
     95 H193       84.8975   58.3275   48.7088 dc         1 CLA      0.065600
     96 H192       83.3053   57.5785   48.3232 dc         1 CLA      0.065600
     97 H191       84.8326   56.5651   48.2461 dc         1 CLA      0.065600
     98 H172       82.7900   57.0120   46.0150 dc         1 CLA      0.027600
     99 H171       84.1132   55.9346   45.3964 dc         1 CLA      0.027600
    100 H162       84.5583   57.4718   43.6436 dc         1 CLA      0.002900
    101 H161       83.2462   58.5125   44.0849 dc         1 CLA      0.002900
    102 H152       81.7896   56.7348   43.6161 dc         1 CLA      0.029100
    103 H151       83.0141   55.4123   43.5602 dc         1 CLA      0.029100
    104 H143       81.3022   58.3487   41.6631 dc         1 CLA      0.063600
    105 H142       83.0359   58.9205   41.8227 dc         1 CLA      0.063600
    106 H141       82.4894   58.3635   40.3831 dc         1 CLA      0.063600
    107 H122       84.4212   55.4252   41.4218 dc         1 CLA      0.032500
    108 H121       85.0543   57.0937   41.3492 dc         1 CLA      0.032500
    109 H112       84.1111   57.3340   39.1195 dc         1 CLA      0.006600
    110 H111       83.4666   55.5962   39.1532 dc         1 CLA      0.006600
    111 H102       85.7867   54.7408   39.3667 dc         1 CLA      0.024100
    112 H101       86.4163   56.4940   39.2849 dc         1 CLA      0.024100
    113 HHD        72.6001   57.6397   40.3323 da         1 CLA      0.174300
    114 HHC        76.7610   61.4147   43.3719 da         1 CLA      0.136800
    115 HHB        81.0576   60.4146   38.6760 da         1 CLA      0.138300
    116 HBD        76.2160   58.1008   34.0526 dc         1 CLA      0.107700
    117 HAB        78.4673   62.9996   43.7455 da         1 CLA      0.155200
    118 H93        87.9071   55.3922   37.3808 dc         1 CLA      0.069500
    119 H92        87.4839   56.1450   35.8463 dc         1 CLA      0.069500
    120 H91        87.5987   56.9995   37.4297 dc         1 CLA      0.069500
    121 H8         85.3355   56.7482   36.9771 dc         1 CLA      0.029300
    122 H72        84.0790   54.5468   36.9621 dc         1 CLA      0.044400
    123 H71        85.6887   53.8000   36.6671 dc         1 CLA      0.044400
    124 H62        85.7126   55.3488   34.6118 dc         1 CLA      0.015600
    125 H61        84.2238   55.8578   34.9533 dc         1 CLA      0.015600
    126 H52        84.8844   52.8842   34.4950 dc         1 CLA      0.033200
    127 H51        84.4625   53.9999   33.2280 dc         1 CLA      0.033200
    128 H43        83.0246   51.5514   35.2210 dc         1 CLA      0.037000
    129 H42        81.3648   51.8832   34.5365 dc         1 CLA      0.037000
    130 H41        82.6794   51.5638   33.4335 dc         1 CLA      0.037000
    131 H3A        80.5023   59.8033   36.0365 dc         1 CLA      0.041100
    132 H2A        79.2624   57.1935   35.5374 dc         1 CLA      0.083100
    133 H2         81.7943   54.9012   35.5985 da         1 CLA      0.180900
    134 H18        84.3359   58.8549   46.3327 dc         1 CLA     -0.003900
    135 H13        82.0837   56.0629   41.1330 dc         1 CLA      0.019700
    136 H12        80.4989   54.5428   33.1260 dc         1 CLA      0.120400
    137 H11        82.0660   55.0014   32.5602 dc         1 CLA      0.120400
    138 C1         68.6820   61.3971   49.8114 Z1         2 LUT      0.509236
    139 C2         68.5022   62.4173   50.9563 Z2         2 LUT     -0.434695
    140 C3         67.0766   62.8027   51.2674 Z3         2 LUT      0.437453
    141 O3         67.1038   63.6390   52.3894 S1         2 LUT     -0.547129
    142 C4         66.5353   63.5040   50.0090 Z4         2 LUT     -0.468603
    143 C5         67.1215   63.1536   48.6546 Z5         2 LUT      0.279246
    144 C6         67.9958   62.0971   48.5649 Z6         2 LUT     -0.305473
    145 C7         68.6712   61.7743   47.2684 Z7         2 LUT      0.069402
    146 C8         69.5781   62.4904   46.5192 Z8         2 LUT     -0.191631
    147 C9         70.1874   62.1147   45.2471 Z9         2 LUT      0.196698
    148 C10        71.2333   62.8808   44.8663 Y1         2 LUT     -0.208611
    149 C11        71.9848   62.9415   43.6799 Y2         2 LUT      0.030784
    150 C12        73.1955   63.6118   43.5007 Y3         2 LUT     -0.220316
    151 C13        74.0402   63.5984   42.3323 Y4         2 LUT      0.215937
    152 C14        75.2426   64.3296   42.3746 Y5         2 LUT     -0.185793
    153 C15        76.2837   64.3285   41.4114 Y6         2 LUT     -0.057835
    154 C16        67.7692   60.2019   50.0966 Y7         2 LUT     -0.405615
    155 C17        70.0961   60.9287   49.6681 Y7         2 LUT     -0.405615
    156 C18        66.7132   64.1693   47.6798 Y9         2 LUT     -0.369639
    157 C19        69.6417   60.9832   44.4030 W1         2 LUT     -0.333362
    158 C20        73.5386   62.8351   41.1267 W2         2 LUT     -0.323439
    159 C21        87.3998   66.0980   34.8316 Z1         2 LUT      0.406104
    160 C22        88.1175   65.7649   33.5048 Z2         2 LUT     -0.404965
    161 C23        88.3021   66.8820   32.5021 Z3         2 LUT      0.391255
    162 O23        89.1865   66.5475   31.3927 S1         2 LUT     -0.528210
    163 C24        86.9980   67.4458   32.2545 W6         2 LUT     -0.258361
    164 C25        85.9573   67.3739   33.0889 Z5         2 LUT      0.133546
    165 C26        85.9308   66.5397   34.4099 W8         2 LUT     -0.147008
    166 C27        85.1610   67.1055   35.5816 Z7         2 LUT      0.023843
    167 C28        84.1498   66.5132   36.3216 Z8         2 LUT     -0.216987
    168 C29        83.4979   67.0610   37.4898 Z9         2 LUT      0.206524
    169 C30        82.3552   66.3840   37.9099 Y1         2 LUT     -0.215556
    170 C31        81.5318   66.5575   39.0775 Y2         2 LUT      0.025142
    171 C32        80.4771   65.8299   39.3279 Y3         2 LUT     -0.212209
    172 C33        79.6206   65.9532   40.5050 Y4         2 LUT      0.240937
    173 C34        78.4152   65.2374   40.5019 Y5         2 LUT     -0.218862
    174 C35        77.3752   65.1698   41.5334 Y6         2 LUT     -0.023547
    175 C36        88.1817   67.1585   35.6501 Y7         2 LUT     -0.393485
    176 C37        87.4196   64.7385   35.6309 Y7         2 LUT     -0.393485
    177 C38        84.6978   68.1161   32.7789 Y9         2 LUT     -0.387526
    178 C39        84.0748   68.2484   38.3600 W1         2 LUT     -0.322618
    179 C40        80.1298   66.8378   41.6352 W2         2 LUT     -0.358472
    180 H403       79.5482   66.6071   42.5218 R7         2 LUT      0.097720
    181 H402       81.1916   66.5427   41.7921 R7         2 LUT      0.097720
    182 H401       79.9948   67.8949   41.5163 R7         2 LUT      0.097720
    183 H393       84.3216   68.9625   37.6287 R4         2 LUT      0.082505
    184 H392       83.3236   68.7216   39.0032 R4         2 LUT      0.082505
    185 H391       85.0277   68.1080   38.9030 R4         2 LUT      0.082505
    186 H383       83.7699   67.5291   32.9182 R1         2 LUT      0.104030
    187 H382       84.7041   68.9447   33.5202 R1         2 LUT      0.104030
    188 H381       84.6085   68.5181   31.7605 R1         2 LUT      0.104030
    189 H373       86.9271   64.8715   36.6000 T4         2 LUT      0.089537
    190 H372       86.8366   63.9621   35.1490 T4         2 LUT      0.089537
    191 H371       88.4423   64.2099   35.7788 T4         2 LUT      0.089537
    192 H363       87.6045   67.5522   36.4716 T4         2 LUT      0.089537
    193 H362       89.1336   66.8386   36.0320 T4         2 LUT      0.089537
    194 H361       88.4383   68.0419   35.0741 T4         2 LUT      0.089537
    195 H222       89.2044   65.5468   33.7318 U2         2 LUT      0.127376
    196 H221       87.5376   64.9230   32.9922 U2         2 LUT      0.127376
    197 H203       73.6995   61.7585   41.1852 R7         2 LUT      0.087068
    198 H202       72.5085   62.9440   40.9976 R7         2 LUT      0.087068
    199 H201       74.0593   63.1236   40.1737 R7         2 LUT      0.087068
    200 H193       70.3658   60.6907   43.6296 R4         2 LUT      0.089716
    201 H192       69.1849   60.1688   44.9217 R4         2 LUT      0.089716
    202 H191       68.8120   61.2346   43.7408 R4         2 LUT      0.089716
    203 H183       67.3440   65.1035   47.7544 R1         2 LUT      0.094572
    204 H182       66.8518   63.8080   46.6592 R1         2 LUT      0.094572
    205 H181       65.6388   64.4320   47.8080 R1         2 LUT      0.094572
    206 H173       70.4404   60.5670   50.5675 T4         2 LUT      0.093752
    207 H172       70.2982   60.1405   48.9436 T4         2 LUT      0.093752
    208 H171       70.6798   61.8512   49.4871 T4         2 LUT      0.093752
    209 H163       66.7222   60.4796   49.8820 T4         2 LUT      0.093752
    210 H162       67.9653   59.3076   49.4977 T4         2 LUT      0.093752
    211 H161       67.8594   60.0047   51.1574 T4         2 LUT      0.093752
    212 HO3        66.8732   63.2143   53.2422 Q1         2 LUT      0.300121
    213 H8         70.0179   63.4207   46.9589 U7         2 LUT      0.080784
    214 H7         68.3477   60.8337   46.8239 U6         2 LUT      0.042190
    215 H42        65.3444   63.4877   49.9718 U5         2 LUT      0.145166
    216 H41        66.8186   64.5386   50.2124 U5         2 LUT      0.145166
    217 H35        77.4676   65.7865   42.4670 T3         2 LUT      0.077919
    218 H34        78.1570   64.6889   39.6081 T2         2 LUT      0.073626
    219 H32        80.1660   65.0766   38.6278 T1         2 LUT      0.092510
    220 H31        81.7423   67.3659   39.7281 U9         2 LUT      0.070048
    221 H30        81.9286   65.5969   37.1957 U8         2 LUT      0.085442
    222 H3         66.4960   61.9028   51.4347 U3         2 LUT     -0.031596
    223 H28        83.7594   65.5428   35.8652 U7         2 LUT      0.084728
    224 H27        85.5517   68.0516   36.0277 U6         2 LUT      0.087291
    225 H26        85.3484   65.7480   34.0041 Q6         2 LUT      0.075325
    226 H24        86.9356   67.9357   31.3067 Q5         2 LUT      0.094482
    227 H23        88.8208   67.7131   32.9150 U3         2 LUT     -0.024869
    228 H22        68.9890   62.0131   51.8407 U2         2 LUT      0.127376
    229 H21        69.0105   63.3535   50.7796 U2         2 LUT      0.127376
    230 H15        76.3341   63.7434   40.5145 T3         2 LUT      0.093200
    231 H14        75.3130   65.0100   43.2235 T2         2 LUT      0.068865
    232 H12        73.5085   64.1564   44.3433 T1         2 LUT      0.095507
    233 H11        71.6731   62.2470   42.9130 U9         2 LUT      0.068930
    234 H10        71.5983   63.6665   45.5069 U8         2 LUT      0.083911
    235 H1         88.7158   66.0814   30.6764 Q1         2 LUT      0.297311
@<TRIPOS>BOND
    1     6     1 1
    2     7     2 1
    3     8     3 1
    4     9     4 1
    5    11     4 1
    6    12     6 1
    7    13     9 1
    8    16     9 1
    9    25     5 1
   10    25    16 1
   11    26    10 1
   12    26    17 1
   13    27    18 1
   14    28    14 1
   15    28    19 1
   16    29    12 1
   17    30    13 1
   18    31    24 1
   19    32     1 1
   20    32    25 1
   21    33    21 1
   22    33    26 1
   23    34    22 1
   24    34    27 1
   25    35    23 1
   26    35    28 1
   27    36    12 1
   28    36    24 1
   29    37    13 1
   30    37    15 1
   31    38    31 1
   32    39    20 1
   33    39    32 1
   34    40     2 1
   35    40    33 1
   36    41     3 1
   37    41    34 1
   38    42     4 1
   39    42    35 1
   40    43    38 1
   41    44     5 1
   42    44    17 1
   43    44    39 1
   44    45    10 1
   45    45    18 1
   46    45    40 1
   47    46    19 1
   48    46    41 1
   49    47    14 1
   50    47    16 1
   51    47    42 1
   52    48    38 1
   53    49    48 1
   54    50    49 1
   55    51    50 1
   56    52    51 1
   57    53    51 1
   58    54    53 1
   59    55    54 1
   60    56    55 1
   61    57    56 1
   62    58    56 1
   63    59    58 1
   64    60    59 1
   65    61    60 1
   66    62    61 1
   67    63    61 1
   68    64    27 1
   69    64    46 1
   70    65     5 1
   71    65    10 1
   72    65    64 1
   73    65    14 1
   74    66    23 1
   75    67    23 1
   76    68    23 1
   77    69    22 1
   78    70    22 1
   79    71    22 1
   80    72    21 1
   81    73    21 1
   82    74    21 1
   83    75    20 1
   84    76    20 1
   85    77    20 1
   86    78    15 1
   87    79    15 1
   88    80    15 1
   89    81     8 1
   90    82     8 1
   91    83     8 1
   92    84     7 1
   93    85     7 1
   94    86     6 1
   95    87     6 1
   96    88     3 1
   97    89     3 1
   98    90     1 1
   99    91     1 1
  100    92    63 1
  101    93    63 1
  102    94    63 1
  103    95    62 1
  104    96    62 1
  105    97    62 1
  106    98    60 1
  107    99    60 1
  108   100    59 1
  109   101    59 1
  110   102    58 1
  111   103    58 1
  112   104    57 1
  113   105    57 1
  114   106    57 1
  115   107    55 1
  116   108    55 1
  117   109    54 1
  118   110    54 1
  119   111    53 1
  120   112    53 1
  121   113    19 1
  122   114    18 1
  123   115    17 1
  124   116     9 1
  125   117     2 1
  126   118    52 1
  127   119    52 1
  128   120    52 1
  129   121    51 1
  130   122    50 1
  131   123    50 1
  132   124    49 1
  133   125    49 1
  134   126    48 1
  135   127    48 1
  136   128    43 1
  137   129    43 1
  138   130    43 1
  139   131    39 1
  140   132    32 1
  141   133    31 1
  142   134    61 1
  143   135    56 1
  144   136    24 1
  145   137    24 1
  146   139   138 1
  147   140   139 1
  148   141   140 1
  149   142   140 1
  150   143   142 1
  151   144   138 1
  152   144   143 1
  153   145   144 1
  154   146   145 1
  155   147   146 1
  156   148   147 1
  157   149   148 1
  158   150   149 1
  159   151   150 1
  160   152   151 1
  161   153   152 1
  162   154   138 1
  163   155   138 1
  164   156   143 1
  165   157   147 1
  166   158   151 1
  167   160   159 1
  168   161   160 1
  169   162   161 1
  170   163   161 1
  171   164   163 1
  172   165   159 1
  173   165   164 1
  174   166   165 1
  175   167   166 1
  176   168   167 1
  177   169   168 1
  178   170   169 1
  179   171   170 1
  180   172   171 1
  181   173   172 1
  182   174   153 1
  183   174   173 1
  184   175   159 1
  185   176   159 1
  186   177   164 1
  187   178   168 1
  188   179   172 1
  189   180   179 1
  190   181   179 1
  191   182   179 1
  192   183   178 1
  193   184   178 1
  194   185   178 1
  195   186   177 1
  196   187   177 1
  197   188   177 1
  198   189   176 1
  199   190   176 1
  200   191   176 1
  201   192   175 1
  202   193   175 1
  203   194   175 1
  204   195   160 1
  205   196   160 1
  206   197   158 1
  207   198   158 1
  208   199   158 1
  209   200   157 1
  210   201   157 1
  211   202   157 1
  212   203   156 1
  213   204   156 1
  214   205   156 1
  215   206   155 1
  216   207   155 1
  217   208   155 1
  218   209   154 1
  219   210   154 1
  220   211   154 1
  221   212   141 1
  222   213   146 1
  223   214   145 1
  224   215   142 1
  225   216   142 1
  226   217   174 1
  227   218   173 1
  228   219   171 1
  229   220   170 1
  230   221   169 1
  231   222   140 1
  232   223   167 1
  233   224   166 1
  234   225   165 1
  235   226   163 1
  236   227   161 1
  237   228   139 1
  238   229   139 1
  239   230   153 1
  240   231   152 1
  241   232   150 1
  242   233   149 1
  243   234   148 1
  244   235   162 1
  245   65    153 1
  246   65    174 1
@<TRIPOS>SUBSTRUCTURE
      1 CLA               1 ****               0 ****  **** 
      2 LUT             138 ****               0 ****  **** 
