@<TRIPOS>MOLECULE
Cpptraj generated mol2 file.
  235   246     2     0     0
SMALL
USER_CHARGES


@<TRIPOS>ATOM
      1 CAA        79.7966   59.1885   34.4332 a2         1 CLA     -0.055900
      2 CAB        79.7648   62.7597   43.4998 c8         1 CLA     -0.148500
      3 CAC        73.0500   58.0919   43.1060 a2         1 CLA     -0.012600
      4 CAD        75.8032   56.2828   35.5707 ck         1 CLA      0.398800
      5 NA         78.8867   59.2009   37.8597 ns         1 CLA     -0.225500
      6 CBA        80.9434   59.0647   33.3589 a2         1 CLA     -0.135000
      7 CBB        80.9504   62.7461   44.1936 c0         1 CLA     -0.395200
      8 CBC        73.0586   56.5739   43.1189 a3         1 CLA     -0.037700
      9 CBD        77.2969   56.7888   35.3155 a1         1 CLA     -0.053900
     10 NB         78.5928   60.6859   40.5095 nm         1 CLA     -0.295700
     11 OBD        75.1820   55.5866   34.7624 o2         1 CLA     -0.494600
     12 CGA        81.4573   57.5979   32.9650 c4         1 CLA      0.827000
     13 CGD        78.1898   55.5716   35.1458 c4         1 CLA      0.655300
     14 ND         76.1288   58.0802   38.5395 nm         1 CLA     -0.291600
     15 CED        79.2499   53.7022   36.2642 a3         1 CLA      0.005400
     16 CHA        77.5653   57.7216   36.5346 cs         1 CLA     -0.123800
     17 CHB        80.5815   60.4888   38.9785 aa         1 CLA     -0.291900
     18 CHC        77.2238   60.9645   42.5578 aa         1 CLA     -0.090400
     19 CHD        74.3034   57.8311   40.1701 aa         1 CLA     -0.052000
     20 CMA        82.2522   58.2433   37.2042 a3         1 CLA     -0.230700
     21 CMB        81.8989   62.2495   41.2666 a3         1 CLA     -0.180800
     22 CMC        74.8284   60.4010   44.4539 a3         1 CLA     -0.134000
     23 CMD        73.1884   55.8537   37.8072 a3         1 CLA     -0.141100
     24 C1         82.6733   55.7000   33.7996 a2         1 CLA      0.023000
     25 C1A        78.7024   58.4672   36.7464 ac         1 CLA     -0.015100
     26 C1B        79.8764   60.9725   40.1418 cr         1 CLA      0.054700
     27 C1C        76.1130   60.1800   42.2282 cn         1 CLA     -0.005600
     28 C1D        74.9495   57.5540   38.9270 ap         1 CLA     -0.047300
     29 O1A        81.3935   56.9989   31.8859 o2         1 CLA     -0.610800
     30 O1D        78.8980   55.3898   34.1752 o2         1 CLA     -0.558200
     31 C2         83.1479   55.1258   35.1268 c8         1 CLA     -0.325100
     32 C2A        79.9894   58.4612   35.8415 a1         1 CLA      0.098600
     33 C2B        80.4746   61.7888   41.2168 cb         1 CLA      0.088500
     34 C2C        74.9881   59.9025   43.0927 cb         1 CLA      0.053700
     35 C2D        74.4807   56.6477   37.8851 cb         1 CLA      0.058900
     36 O2A        82.0909   57.0407   34.0706 o1         1 CLA     -0.437200
     37 O2D        78.2455   54.8047   36.3094 o1         1 CLA     -0.357600
     38 C3         84.3156   54.4935   35.2966 c5         1 CLA      0.031200
     39 C3A        81.0522   59.1676   36.7796 a1         1 CLA      0.166800
     40 C3B        79.5690   62.0179   42.2549 cb         1 CLA      0.035000
     41 C3C        74.3123   58.7877   42.5371 cb         1 CLA     -0.089900
     42 C3D        75.4094   56.7622   36.9315 cb         1 CLA     -0.035900
     43 C4         84.4268   52.9811   35.2442 a3         1 CLA     -0.053300
     44 C4A        80.1507   59.6180   37.9554 ac         1 CLA      0.001800
     45 C4B        78.4365   61.1780   41.8035 cn         1 CLA     -0.020900
     46 C4C        74.8833   58.5866   41.1898 cr         1 CLA     -0.044400
     47 C4D        76.4659   57.5331   37.4378 c6         1 CLA     -0.046000
     48 C5         85.6570   55.1937   35.6075 a2         1 CLA     -0.070400
     49 C6         85.7325   55.6568   37.0196 a2         1 CLA      0.043900
     50 C7         87.0960   56.4108   37.2196 a2         1 CLA     -0.150000
     51 C8         87.2443   57.0778   38.6171 a1         1 CLA      0.064200
     52 C9         86.2719   58.2384   38.7533 a3         1 CLA     -0.259300
     53 C10        88.7567   57.4819   38.8796 a2         1 CLA     -0.071900
     54 C11        89.0941   57.7353   40.3222 a2         1 CLA      0.014500
     55 C12        89.1969   56.5004   41.2594 a2         1 CLA     -0.112100
     56 C13        89.4043   56.7622   42.8164 a1         1 CLA      0.089200
     57 C14        89.8680   55.5431   43.6658 a3         1 CLA     -0.239100
     58 C15        88.0690   57.4445   43.4011 a2         1 CLA     -0.102200
     59 C16        88.0098   57.4787   44.9738 a2         1 CLA      0.023900
     60 C17        86.6971   58.0586   45.4431 a2         1 CLA     -0.105700
     61 C18        86.5224   58.2858   46.8945 a1         1 CLA      0.206800
     62 C19        85.0914   58.9096   47.0325 a3         1 CLA     -0.280100
     63 C20        86.7720   57.0810   47.8092 a3         1 CLA     -0.280100
     64 NC         75.9983   59.3795   41.1034 nx         1 CLA     -0.309200
     65 MG         77.4076   59.4531   39.4982 mg         1 CLA      0.895000
     66 HMD3       72.4010   56.6178   37.6098 dc         1 CLA      0.064300
     67 HMD2       73.0393   55.1442   37.0074 dc         1 CLA      0.064300
     68 HMD1       73.0994   55.2811   38.6673 dc         1 CLA      0.064300
     69 HMC3       75.4112   59.8227   45.1795 dc         1 CLA      0.052100
     70 HMC2       75.1443   61.4524   44.6910 dc         1 CLA      0.052100
     71 HMC1       73.8152   60.2355   44.6046 dc         1 CLA      0.052100
     72 HMB3       82.6114   61.5425   41.8071 dc         1 CLA      0.063600
     73 HMB2       82.0987   62.5504   40.2344 dc         1 CLA      0.063600
     74 HMB1       81.9414   63.1765   41.7720 dc         1 CLA      0.063600
     75 HMA3       82.8378   58.0233   36.3755 dc         1 CLA      0.058300
     76 HMA2       82.8509   58.7123   37.8849 dc         1 CLA      0.058300
     77 HMA1       81.8093   57.2715   37.6436 dc         1 CLA      0.058300
     78 HED3       79.2677   53.3094   35.2482 dc         1 CLA      0.079300
     79 HED2       80.2036   54.1006   36.4622 dc         1 CLA      0.079300
     80 HED1       78.9887   52.9246   37.0764 dc         1 CLA      0.079300
     81 HBC3       73.7620   56.2148   43.8523 dc         1 CLA      0.016300
     82 HBC2       72.0767   56.2943   43.5488 dc         1 CLA      0.016300
     83 HBC1       73.1959   56.0256   42.1990 dc         1 CLA      0.016300
     84 HBB2       81.0596   63.3815   45.0849 da         1 CLA      0.183000
     85 HBB1       81.8638   62.2316   43.8169 da         1 CLA      0.183000
     86 HBA2       80.6958   59.5896   32.4837 dc         1 CLA      0.029400
     87 HBA1       81.7763   59.6574   33.7104 dc         1 CLA      0.029400
     88 HAC2       72.8514   58.3859   44.0931 dc         1 CLA      0.029300
     89 HAC1       72.1747   58.3408   42.4995 dc         1 CLA      0.029300
     90 HAA2       78.8060   58.9142   34.0212 dc         1 CLA      0.028700
     91 HAA1       79.7291   60.2548   34.6021 dc         1 CLA      0.028700
     92 H203       86.5805   57.3290   48.8515 dc         1 CLA      0.065600
     93 H202       86.0554   56.3004   47.5992 dc         1 CLA      0.065600
     94 H201       87.7651   56.7258   47.7394 dc         1 CLA      0.065600
     95 H193       84.9662   59.6284   46.2923 dc         1 CLA      0.065600
     96 H192       84.3163   58.2263   46.6603 dc         1 CLA      0.065600
     97 H191       84.7798   59.2415   48.0398 dc         1 CLA      0.065600
     98 H172       86.5523   59.0221   44.9318 dc         1 CLA      0.027600
     99 H171       85.8321   57.4828   45.1761 dc         1 CLA      0.027600
    100 H162       88.1205   56.5395   45.4661 dc         1 CLA      0.002900
    101 H161       88.9234   58.0800   45.2921 dc         1 CLA      0.002900
    102 H152       88.0485   58.5099   43.1231 dc         1 CLA      0.029100
    103 H151       87.2560   56.7858   43.2086 dc         1 CLA      0.029100
    104 H143       90.7515   55.0892   43.1976 dc         1 CLA      0.063600
    105 H142       90.0960   55.8803   44.6711 dc         1 CLA      0.063600
    106 H141       89.1178   54.7572   43.6981 dc         1 CLA      0.063600
    107 H122       88.3093   55.8729   41.2746 dc         1 CLA      0.032500
    108 H121       89.9611   55.8489   40.8802 dc         1 CLA      0.032500
    109 H112       90.0042   58.2361   40.4406 dc         1 CLA      0.006600
    110 H111       88.3121   58.2833   40.8390 dc         1 CLA      0.006600
    111 H102       89.3230   56.6345   38.6382 dc         1 CLA      0.024100
    112 H101       89.0014   58.2372   38.1354 dc         1 CLA      0.024100
    113 HHD        73.4171   57.3190   40.5051 da         1 CLA      0.174300
    114 HHC        77.3821   61.4170   43.5422 da         1 CLA      0.136800
    115 HHB        81.6601   60.7015   38.9250 da         1 CLA      0.138300
    116 HBD        77.3830   57.4086   34.4142 dc         1 CLA      0.107700
    117 HAB        78.9101   63.3442   43.9585 da         1 CLA      0.155200
    118 H93        85.2731   57.8959   38.7013 dc         1 CLA      0.069500
    119 H92        86.4327   58.9254   39.6145 dc         1 CLA      0.069500
    120 H91        86.3078   58.8706   37.8658 dc         1 CLA      0.069500
    121 H8         87.0654   56.3017   39.3846 dc         1 CLA      0.029300
    122 H72        87.7280   55.5749   37.1752 dc         1 CLA      0.044400
    123 H71        87.3811   57.0869   36.4658 dc         1 CLA      0.044400
    124 H62        84.9851   56.3618   37.2283 dc         1 CLA      0.015600
    125 H61        85.6384   54.8026   37.6838 dc         1 CLA      0.015600
    126 H52        86.4393   54.4975   35.4250 dc         1 CLA      0.033200
    127 H51        85.7956   55.9843   34.9523 dc         1 CLA      0.033200
    128 H43        83.4187   52.5550   35.3889 dc         1 CLA      0.037000
    129 H42        84.7586   52.6546   34.2848 dc         1 CLA      0.037000
    130 H41        85.0209   52.6852   36.1085 dc         1 CLA      0.037000
    131 H3A        81.3291   60.0618   36.2621 dc         1 CLA      0.041100
    132 H2A        80.2684   57.4538   35.6612 dc         1 CLA      0.083100
    133 H2         82.5532   55.4776   36.0362 da         1 CLA      0.180900
    134 H18        87.2406   59.0313   47.1642 dc         1 CLA     -0.003900
    135 H13        90.2052   57.4221   43.0030 dc         1 CLA      0.019700
    136 H12        82.0702   54.9828   33.2398 dc         1 CLA      0.120400
    137 H11        83.6241   55.9122   33.2730 dc         1 CLA      0.120400
    138 C1         68.8388   62.1435   50.4314 Z1         2 LUT      0.509236
    139 C2         68.6494   63.4176   51.3639 Z2         2 LUT     -0.434695
    140 C3         67.2736   64.1900   51.3702 Z3         2 LUT      0.437453
    141 O3         67.6758   65.4416   51.9324 S1         2 LUT     -0.547129
    142 C4         66.7208   64.2261   50.0009 Z4         2 LUT     -0.468603
    143 C5         67.4955   63.5672   48.8815 Z5         2 LUT      0.279246
    144 C6         68.3287   62.5260   49.0639 Z6         2 LUT     -0.305473
    145 C7         69.2325   62.1508   47.9901 Z7         2 LUT      0.069402
    146 C8         70.2105   62.7693   47.2697 Z8         2 LUT     -0.191631
    147 C9         70.9305   62.4128   46.0535 Z9         2 LUT      0.196698
    148 C10        71.9607   63.2049   45.5306 Y1         2 LUT     -0.208611
    149 C11        72.7177   63.0875   44.3363 Y2         2 LUT      0.030784
    150 C12        73.8274   63.7841   44.0880 Y3         2 LUT     -0.220316
    151 C13        74.5888   63.7500   42.8860 Y4         2 LUT      0.215937
    152 C14        75.8562   64.2970   42.8606 Y5         2 LUT     -0.185793
    153 C15        76.9340   64.2819   41.9261 Y6         2 LUT     -0.057835
    154 C16        67.8546   61.1712   51.1157 Y7         2 LUT     -0.405615
    155 C17        70.2690   61.5774   50.5252 Y7         2 LUT     -0.405615
    156 C18        67.5895   64.5469   47.7033 Y9         2 LUT     -0.369639
    157 C19        70.3201   61.2441   45.3435 W1         2 LUT     -0.333362
    158 C20        74.0404   63.0332   41.7014 W2         2 LUT     -0.323439
    159 C21        88.3025   66.0287   35.6172 Z1         2 LUT      0.406104
    160 C22        89.1141   65.5100   34.4901 Z2         2 LUT     -0.404965
    161 C23        89.0980   66.5347   33.3307 Z3         2 LUT      0.391255
    162 O23        89.8549   65.9949   32.2305 S1         2 LUT     -0.528210
    163 C24        87.7448   67.1727   33.0535 W6         2 LUT     -0.258361
    164 C25        86.7704   67.2003   34.0134 Z5         2 LUT      0.133546
    165 C26        86.8468   66.4350   35.3461 W8         2 LUT     -0.147008
    166 C27        86.0912   67.0322   36.4724 Z7         2 LUT      0.023843
    167 C28        84.9128   66.6362   37.0017 Z8         2 LUT     -0.216987
    168 C29        84.3277   67.1098   38.2760 Z9         2 LUT      0.206524
    169 C30        83.2395   66.4734   38.8286 Y1         2 LUT     -0.215556
    170 C31        82.4160   66.6020   40.0438 Y2         2 LUT      0.025142
    171 C32        81.2278   65.8312   40.2002 Y3         2 LUT     -0.212209
    172 C33        80.3252   65.7639   41.3293 Y4         2 LUT      0.240937
    173 C34        79.0862   65.2093   41.1916 Y5         2 LUT     -0.218862
    174 C35        78.0290   65.1637   42.0812 Y6         2 LUT     -0.023547
    175 C36        89.2249   67.0804   36.2673 Y7         2 LUT     -0.393485
    176 C37        88.4212   64.8460   36.6717 Y7         2 LUT     -0.393485
    177 C38        85.5705   68.0161   33.7395 Y9         2 LUT     -0.387526
    178 C39        85.1218   68.0695   39.1534 W1         2 LUT     -0.322618
    179 C40        80.8457   66.2278   42.6485 W2         2 LUT     -0.358472
    180 H403       80.0925   66.1287   43.4760 R7         2 LUT      0.097720
    181 H402       81.6968   65.6502   42.9804 R7         2 LUT      0.097720
    182 H401       81.2748   67.1688   42.8371 R7         2 LUT      0.097720
    183 H393       84.5891   68.5451   39.9795 R4         2 LUT      0.082505
    184 H392       85.9542   67.5815   39.5336 R4         2 LUT      0.082505
    185 H391       85.5387   68.8988   38.5265 R4         2 LUT      0.082505
    186 H383       85.4163   68.7992   34.5048 R1         2 LUT      0.104030
    187 H382       85.7545   68.5480   32.7666 R1         2 LUT      0.104030
    188 H381       84.6259   67.3803   33.6695 R1         2 LUT      0.104030
    189 H373       89.4933   64.6233   36.9298 T4         2 LUT      0.089537
    190 H372       87.7063   65.0413   37.5000 T4         2 LUT      0.089537
    191 H371       88.0656   63.8719   36.3795 T4         2 LUT      0.089537
    192 H363       88.9413   67.3610   37.2920 T4         2 LUT      0.089537
    193 H362       90.1982   66.7286   36.2571 T4         2 LUT      0.089537
    194 H361       89.3889   67.9768   35.6098 T4         2 LUT      0.089537
    195 H222       90.2060   65.3088   34.7234 U2         2 LUT      0.127376
    196 H221       88.8117   64.5271   34.1006 U2         2 LUT      0.127376
    197 H203       74.2875   61.9769   41.6197 R7         2 LUT      0.087068
    198 H202       72.9611   63.0978   41.6099 R7         2 LUT      0.087068
    199 H201       74.3225   63.4356   40.6961 R7         2 LUT      0.087068
    200 H193       69.2408   61.3272   45.2739 R4         2 LUT      0.089716
    201 H192       70.6175   61.2331   44.2419 R4         2 LUT      0.089716
    202 H191       70.5891   60.3453   45.8610 R4         2 LUT      0.089716
    203 H183       68.2359   65.4154   47.9622 R1         2 LUT      0.094572
    204 H182       67.9048   63.9664   46.8135 R1         2 LUT      0.094572
    205 H181       66.6592   64.9304   47.3823 R1         2 LUT      0.094572
    206 H173       71.0513   62.3147   50.2412 T4         2 LUT      0.093752
    207 H172       70.6705   61.2669   51.4541 T4         2 LUT      0.093752
    208 H171       70.3874   60.6353   49.9468 T4         2 LUT      0.093752
    209 H163       67.8567   60.1770   50.6469 T4         2 LUT      0.093752
    210 H162       68.1169   61.0684   52.1844 T4         2 LUT      0.093752
    211 H161       66.8313   61.5701   50.9673 T4         2 LUT      0.093752
    212 HO3        66.8445   65.9220   52.0681 Q1         2 LUT      0.300121
    213 H8         70.4681   63.8261   47.6148 U7         2 LUT      0.080784
    214 H7         68.8527   61.1458   47.7365 U6         2 LUT      0.042190
    215 H42        65.7911   63.7223   50.1090 U5         2 LUT      0.145166
    216 H41        66.3733   65.2278   49.6015 U5         2 LUT      0.145166
    217 H35        78.0000   65.8288   42.8594 T3         2 LUT      0.077919
    218 H34        78.8639   64.6148   40.2369 T2         2 LUT      0.073626
    219 H32        80.8116   65.3613   39.2846 T1         2 LUT      0.092510
    220 H31        82.6182   67.3578   40.8466 U9         2 LUT      0.070048
    221 H30        82.8453   65.6744   38.1736 U8         2 LUT      0.085442
    222 H3         66.7222   63.6613   52.2386 U3         2 LUT     -0.031596
    223 H28        84.2884   66.0267   36.3711 U7         2 LUT      0.084728
    224 H27        86.7680   67.7076   37.0279 U6         2 LUT      0.087291
    225 H26        86.3375   65.5537   35.0875 Q6         2 LUT      0.075325
    226 H24        87.6897   67.7222   32.1220 Q5         2 LUT      0.094482
    227 H23        89.7038   67.3812   33.8082 U3         2 LUT     -0.024869
    228 H22        68.9060   63.3145   52.3907 U2         2 LUT      0.127376
    229 H21        69.3216   64.1925   51.0151 U2         2 LUT      0.127376
    230 H15        76.9967   63.5737   41.1255 T3         2 LUT      0.093200
    231 H14        76.0723   64.7859   43.7756 T2         2 LUT      0.068865
    232 H12        74.1865   64.5021   44.8070 T1         2 LUT      0.095507
    233 H11        72.3585   62.4302   43.5807 U9         2 LUT      0.068930
    234 H10        72.2330   64.1106   46.0182 U8         2 LUT      0.083911
    235 H1         89.2502   65.4623   31.6989 Q1         2 LUT      0.297311
@<TRIPOS>BOND
    1     6     1 1
    2     7     2 1
    3     8     3 1
    4     9     4 1
    5    11     4 1
    6    12     6 1
    7    13     9 1
    8    16     9 1
    9    25     5 1
   10    25    16 1
   11    26    10 1
   12    26    17 1
   13    27    18 1
   14    28    14 1
   15    28    19 1
   16    29    12 1
   17    30    13 1
   18    31    24 1
   19    32     1 1
   20    32    25 1
   21    33    21 1
   22    33    26 1
   23    34    22 1
   24    34    27 1
   25    35    23 1
   26    35    28 1
   27    36    12 1
   28    36    24 1
   29    37    13 1
   30    37    15 1
   31    38    31 1
   32    39    20 1
   33    39    32 1
   34    40     2 1
   35    40    33 1
   36    41     3 1
   37    41    34 1
   38    42     4 1
   39    42    35 1
   40    43    38 1
   41    44     5 1
   42    44    17 1
   43    44    39 1
   44    45    10 1
   45    45    18 1
   46    45    40 1
   47    46    19 1
   48    46    41 1
   49    47    14 1
   50    47    16 1
   51    47    42 1
   52    48    38 1
   53    49    48 1
   54    50    49 1
   55    51    50 1
   56    52    51 1
   57    53    51 1
   58    54    53 1
   59    55    54 1
   60    56    55 1
   61    57    56 1
   62    58    56 1
   63    59    58 1
   64    60    59 1
   65    61    60 1
   66    62    61 1
   67    63    61 1
   68    64    27 1
   69    64    46 1
   70    65     5 1
   71    65    10 1
   72    65    64 1
   73    65    14 1
   74    66    23 1
   75    67    23 1
   76    68    23 1
   77    69    22 1
   78    70    22 1
   79    71    22 1
   80    72    21 1
   81    73    21 1
   82    74    21 1
   83    75    20 1
   84    76    20 1
   85    77    20 1
   86    78    15 1
   87    79    15 1
   88    80    15 1
   89    81     8 1
   90    82     8 1
   91    83     8 1
   92    84     7 1
   93    85     7 1
   94    86     6 1
   95    87     6 1
   96    88     3 1
   97    89     3 1
   98    90     1 1
   99    91     1 1
  100    92    63 1
  101    93    63 1
  102    94    63 1
  103    95    62 1
  104    96    62 1
  105    97    62 1
  106    98    60 1
  107    99    60 1
  108   100    59 1
  109   101    59 1
  110   102    58 1
  111   103    58 1
  112   104    57 1
  113   105    57 1
  114   106    57 1
  115   107    55 1
  116   108    55 1
  117   109    54 1
  118   110    54 1
  119   111    53 1
  120   112    53 1
  121   113    19 1
  122   114    18 1
  123   115    17 1
  124   116     9 1
  125   117     2 1
  126   118    52 1
  127   119    52 1
  128   120    52 1
  129   121    51 1
  130   122    50 1
  131   123    50 1
  132   124    49 1
  133   125    49 1
  134   126    48 1
  135   127    48 1
  136   128    43 1
  137   129    43 1
  138   130    43 1
  139   131    39 1
  140   132    32 1
  141   133    31 1
  142   134    61 1
  143   135    56 1
  144   136    24 1
  145   137    24 1
  146   139   138 1
  147   140   139 1
  148   141   140 1
  149   142   140 1
  150   143   142 1
  151   144   138 1
  152   144   143 1
  153   145   144 1
  154   146   145 1
  155   147   146 1
  156   148   147 1
  157   149   148 1
  158   150   149 1
  159   151   150 1
  160   152   151 1
  161   153   152 1
  162   154   138 1
  163   155   138 1
  164   156   143 1
  165   157   147 1
  166   158   151 1
  167   160   159 1
  168   161   160 1
  169   162   161 1
  170   163   161 1
  171   164   163 1
  172   165   159 1
  173   165   164 1
  174   166   165 1
  175   167   166 1
  176   168   167 1
  177   169   168 1
  178   170   169 1
  179   171   170 1
  180   172   171 1
  181   173   172 1
  182   174   153 1
  183   174   173 1
  184   175   159 1
  185   176   159 1
  186   177   164 1
  187   178   168 1
  188   179   172 1
  189   180   179 1
  190   181   179 1
  191   182   179 1
  192   183   178 1
  193   184   178 1
  194   185   178 1
  195   186   177 1
  196   187   177 1
  197   188   177 1
  198   189   176 1
  199   190   176 1
  200   191   176 1
  201   192   175 1
  202   193   175 1
  203   194   175 1
  204   195   160 1
  205   196   160 1
  206   197   158 1
  207   198   158 1
  208   199   158 1
  209   200   157 1
  210   201   157 1
  211   202   157 1
  212   203   156 1
  213   204   156 1
  214   205   156 1
  215   206   155 1
  216   207   155 1
  217   208   155 1
  218   209   154 1
  219   210   154 1
  220   211   154 1
  221   212   141 1
  222   213   146 1
  223   214   145 1
  224   215   142 1
  225   216   142 1
  226   217   174 1
  227   218   173 1
  228   219   171 1
  229   220   170 1
  230   221   169 1
  231   222   140 1
  232   223   167 1
  233   224   166 1
  234   225   165 1
  235   226   163 1
  236   227   161 1
  237   228   139 1
  238   229   139 1
  239   230   153 1
  240   231   152 1
  241   232   150 1
  242   233   149 1
  243   234   148 1
  244   235   162 1
  245   65    153 1
  246   65    174 1
@<TRIPOS>SUBSTRUCTURE
      1 CLA               1 ****               0 ****  **** 
      2 LUT             138 ****               0 ****  **** 
