@<TRIPOS>MOLECULE
Cpptraj generated mol2 file.
  235   246     2     0     0
SMALL
USER_CHARGES


@<TRIPOS>ATOM
      1 CAA        78.9915   58.3948   34.1984 a2         1 CLA     -0.055900
      2 CAB        79.3158   62.4193   42.9672 c8         1 CLA     -0.148500
      3 CAC        72.1931   58.6850   43.0283 a2         1 CLA     -0.012600
      4 CAD        74.7163   56.2488   35.3987 ck         1 CLA      0.398800
      5 NA         78.1059   58.8243   37.6342 ns         1 CLA     -0.225500
      6 CBA        80.0600   58.1049   33.0568 a2         1 CLA     -0.135000
      7 CBB        80.5727   62.4310   43.5143 c0         1 CLA     -0.395200
      8 CBC        72.1199   57.1653   43.1088 a3         1 CLA     -0.037700
      9 CBD        76.2428   56.6082   35.1540 a1         1 CLA     -0.053900
     10 NB         78.0216   60.4040   40.0945 nm         1 CLA     -0.295700
     11 OBD        74.0517   55.5383   34.7019 o2         1 CLA     -0.494600
     12 CGA        80.4290   56.6892   32.7665 c4         1 CLA      0.827000
     13 CGD        76.9760   55.4290   34.5607 c4         1 CLA      0.655300
     14 ND         75.3088   58.0931   38.3625 nm         1 CLA     -0.291600
     15 CED        77.1999   52.9810   34.7844 a3         1 CLA      0.005400
     16 CHA        76.6615   57.3835   36.3821 cs         1 CLA     -0.123800
     17 CHB        79.8819   60.3491   38.4775 aa         1 CLA     -0.291900
     18 CHC        76.8019   60.7512   42.2337 aa         1 CLA     -0.090400
     19 CHD        73.4195   58.2433   40.0127 aa         1 CLA     -0.052000
     20 CMA        81.3852   57.7983   37.0462 a3         1 CLA     -0.230700
     21 CMB        81.3498   62.1457   40.4006 a3         1 CLA     -0.180800
     22 CMC        74.4560   60.6581   44.3820 a3         1 CLA     -0.134000
     23 CMD        71.8569   56.7797   37.5702 a3         1 CLA     -0.141100
     24 C1         80.8291   54.5807   33.6920 a2         1 CLA      0.023000
     25 C1A        77.8950   58.0472   36.5832 ac         1 CLA     -0.015100
     26 C1B        79.2542   60.7361   39.6766 cr         1 CLA      0.054700
     27 C1C        75.5629   60.2011   42.0217 cn         1 CLA     -0.005600
     28 C1D        73.9861   57.8121   38.7466 ap         1 CLA     -0.047300
     29 O1A        80.2548   56.1261   31.6786 o2         1 CLA     -0.610800
     30 O1D        77.6296   55.5154   33.5755 o2         1 CLA     -0.558200
     31 C2         81.0390   54.0163   35.1142 c8         1 CLA     -0.325100
     32 C2A        79.1429   57.8827   35.6755 a1         1 CLA      0.098600
     33 C2B        79.9522   61.5526   40.6281 cb         1 CLA      0.088500
     34 C2C        74.5053   60.0517   42.9938 cb         1 CLA      0.053700
     35 C2D        73.3688   57.0809   37.6605 cb         1 CLA      0.058900
     36 O2A        80.8408   56.0308   33.8595 o1         1 CLA     -0.437200
     37 O2D        76.6563   54.2583   35.2862 o1         1 CLA     -0.357600
     38 C3         81.6616   52.8947   35.5543 c5         1 CLA      0.031200
     39 C3A        80.1889   58.6644   36.5166 a1         1 CLA      0.166800
     40 C3B        79.0929   61.6773   41.6879 cb         1 CLA      0.035000
     41 C3C        73.5322   59.2155   42.3853 cb         1 CLA     -0.089900
     42 C3D        74.4013   56.8580   36.6625 cb         1 CLA     -0.035900
     43 C4         80.9476   51.6107   35.6657 a3         1 CLA     -0.053300
     44 C4A        79.3401   59.3519   37.6203 ac         1 CLA      0.001800
     45 C4B        77.8748   60.9019   41.3188 cn         1 CLA     -0.020900
     46 C4C        74.0398   58.9453   41.0664 cr         1 CLA     -0.044400
     47 C4D        75.5932   57.4417   37.1686 c6         1 CLA     -0.046000
     48 C5         83.1705   52.8846   35.5303 a2         1 CLA     -0.070400
     49 C6         83.8603   54.2045   35.8360 a2         1 CLA      0.043900
     50 C7         83.6500   54.6706   37.3083 a2         1 CLA     -0.150000
     51 C8         84.4056   56.0450   37.6739 a1         1 CLA      0.064200
     52 C9         85.7562   55.9982   36.9700 a3         1 CLA     -0.259300
     53 C10        84.5701   56.2471   39.1600 a2         1 CLA     -0.071900
     54 C11        83.2767   56.5277   39.9885 a2         1 CLA      0.014500
     55 C12        83.4929   56.8051   41.4620 a2         1 CLA     -0.112100
     56 C13        82.2232   57.3255   42.1748 a1         1 CLA      0.089200
     57 C14        81.9186   58.8244   41.9707 a3         1 CLA     -0.239100
     58 C15        82.1917   57.0430   43.7122 a2         1 CLA     -0.102200
     59 C16        83.4290   57.5556   44.4583 a2         1 CLA      0.023900
     60 C17        83.3675   56.9040   45.9000 a2         1 CLA     -0.105700
     61 C18        84.1900   57.6050   46.9861 a1         1 CLA      0.206800
     62 C19        83.4441   57.1035   48.3379 a3         1 CLA     -0.280100
     63 C20        85.6993   57.3415   47.0189 a3         1 CLA     -0.280100
     64 NC         75.2691   59.5151   40.9122 nx         1 CLA     -0.309200
     65 MG         76.6087   59.3040   39.0708 mg         1 CLA      0.895000
     66 HMD3       71.6311   55.8795   37.0018 dc         1 CLA      0.064300
     67 HMD2       71.3975   56.7708   38.5466 dc         1 CLA      0.064300
     68 HMD1       71.3956   57.5991   36.9971 dc         1 CLA      0.064300
     69 HMC3       74.9722   60.0669   45.1119 dc         1 CLA      0.052100
     70 HMC2       74.9268   61.6378   44.3807 dc         1 CLA      0.052100
     71 HMC1       73.5360   60.9417   44.7311 dc         1 CLA      0.052100
     72 HMB3       81.3344   63.0113   41.0018 dc         1 CLA      0.063600
     73 HMB2       82.1412   61.3834   40.5936 dc         1 CLA      0.063600
     74 HMB1       81.3820   62.6254   39.4251 dc         1 CLA      0.063600
     75 HMA3       81.7890   57.1785   36.2582 dc         1 CLA      0.058300
     76 HMA2       82.1527   58.4175   37.5170 dc         1 CLA      0.058300
     77 HMA1       80.9856   57.1733   37.8576 dc         1 CLA      0.058300
     78 HED3       76.9531   52.8842   33.7277 dc         1 CLA      0.079300
     79 HED2       78.2710   53.0154   34.6223 dc         1 CLA      0.079300
     80 HED1       76.8256   52.1102   35.2826 dc         1 CLA      0.079300
     81 HBC3       71.3134   56.9186   43.8502 dc         1 CLA      0.016300
     82 HBC2       71.8400   56.8302   42.0478 dc         1 CLA      0.016300
     83 HBC1       73.0141   56.7017   43.5495 dc         1 CLA      0.016300
     84 HBB2       80.7840   62.9639   44.4602 da         1 CLA      0.183000
     85 HBB1       81.4279   61.9721   43.0083 da         1 CLA      0.183000
     86 HBA2       79.7522   58.5995   32.1071 dc         1 CLA      0.029400
     87 HBA1       80.9698   58.6255   33.3402 dc         1 CLA      0.029400
     88 HAC2       72.1301   58.9708   44.0492 dc         1 CLA      0.029300
     89 HAC1       71.3337   59.0818   42.5197 dc         1 CLA      0.029300
     90 HAA2       78.0686   57.9260   33.8440 dc         1 CLA      0.028700
     91 HAA1       78.8560   59.5346   34.2699 dc         1 CLA      0.028700
     92 H203       86.2517   57.7278   47.9491 dc         1 CLA      0.065600
     93 H202       85.8954   56.2412   46.9085 dc         1 CLA      0.065600
     94 H201       86.0186   57.9053   46.1282 dc         1 CLA      0.065600
     95 H193       83.9794   57.2585   49.2204 dc         1 CLA      0.065600
     96 H192       82.3865   57.4696   48.3825 dc         1 CLA      0.065600
     97 H191       83.3935   56.0661   48.3489 dc         1 CLA      0.065600
     98 H172       82.3124   56.9800   46.1304 dc         1 CLA      0.027600
     99 H171       83.7772   55.8792   45.8225 dc         1 CLA      0.027600
    100 H162       84.3572   57.1254   43.9477 dc         1 CLA      0.002900
    101 H161       83.5230   58.6589   44.3894 dc         1 CLA      0.002900
    102 H152       81.2264   57.3561   44.1614 dc         1 CLA      0.029100
    103 H151       82.2079   55.9294   43.7376 dc         1 CLA      0.029100
    104 H143       82.8434   59.3355   42.3221 dc         1 CLA      0.063600
    105 H142       81.7678   59.0310   40.9228 dc         1 CLA      0.063600
    106 H141       81.1142   59.2528   42.5636 dc         1 CLA      0.063600
    107 H122       83.8372   55.8077   41.7461 dc         1 CLA      0.032500
    108 H121       84.3259   57.4975   41.6593 dc         1 CLA      0.032500
    109 H112       82.7970   57.4259   39.4675 dc         1 CLA      0.006600
    110 H111       82.5341   55.7831   39.8938 dc         1 CLA      0.006600
    111 H102       85.0791   55.3558   39.6310 dc         1 CLA      0.024100
    112 H101       85.2499   57.1299   39.2189 dc         1 CLA      0.024100
    113 HHD        72.4163   57.8333   40.0597 da         1 CLA      0.174300
    114 HHC        76.9440   61.3139   43.1671 da         1 CLA      0.136800
    115 HHB        80.9905   60.5280   38.2192 da         1 CLA      0.138300
    116 HBD        76.1202   57.2811   34.2940 dc         1 CLA      0.107700
    117 HAB        78.4625   62.8008   43.4550 da         1 CLA      0.155200
    118 H93        86.4080   55.1309   37.1928 dc         1 CLA      0.069500
    119 H92        85.4763   56.0781   35.8843 dc         1 CLA      0.069500
    120 H91        86.3039   56.9276   36.9958 dc         1 CLA      0.069500
    121 H8         83.7073   56.8204   37.2323 dc         1 CLA      0.029300
    122 H72        82.5580   54.8025   37.4342 dc         1 CLA      0.044400
    123 H71        83.8782   53.8838   37.9309 dc         1 CLA      0.044400
    124 H62        84.8620   53.8990   35.7137 dc         1 CLA      0.015600
    125 H61        83.5178   54.9180   35.1148 dc         1 CLA      0.015600
    126 H52        83.5504   52.2187   36.3071 dc         1 CLA      0.033200
    127 H51        83.4735   52.5064   34.5621 dc         1 CLA      0.033200
    128 H43        80.7855   51.3472   36.7307 dc         1 CLA      0.037000
    129 H42        79.9850   51.8359   35.1590 dc         1 CLA      0.037000
    130 H41        81.4471   50.8530   35.1215 dc         1 CLA      0.037000
    131 H3A        80.6114   59.4501   35.8234 dc         1 CLA      0.041100
    132 H2A        79.2735   56.8234   35.6454 dc         1 CLA      0.083100
    133 H2         80.6302   54.7161   35.8851 da         1 CLA      0.180900
    134 H18        83.9796   58.6650   46.8740 dc         1 CLA     -0.003900
    135 H13        81.4443   56.7376   41.7351 dc         1 CLA      0.019700
    136 H12        79.8323   54.2442   33.4259 dc         1 CLA      0.120400
    137 H11        81.5328   54.1381   33.0243 dc         1 CLA      0.120400
    138 C1         68.0940   61.9441   49.8470 Z1         2 LUT      0.509236
    139 C2         66.6867   61.7849   50.4642 Z2         2 LUT     -0.434695
    140 C3         65.9684   63.0610   50.9178 Z3         2 LUT      0.437453
    141 O3         66.2193   63.5630   52.2362 S1         2 LUT     -0.547129
    142 C4         66.2856   64.1952   49.9266 Z4         2 LUT     -0.468603
    143 C5         67.2191   63.8841   48.6470 Z5         2 LUT      0.279246
    144 C6         68.0250   62.8107   48.5900 Z6         2 LUT     -0.305473
    145 C7         68.5925   62.1563   47.3574 Z7         2 LUT      0.069402
    146 C8         69.5450   62.7679   46.6120 Z8         2 LUT     -0.191631
    147 C9         70.1068   62.3589   45.3288 Z9         2 LUT      0.196698
    148 C10        71.0782   63.1025   44.8266 Y1         2 LUT     -0.208611
    149 C11        71.8810   62.9276   43.5617 Y2         2 LUT      0.030784
    150 C12        73.1004   63.4068   43.3116 Y3         2 LUT     -0.220316
    151 C13        73.8840   63.3459   42.1028 Y4         2 LUT      0.215937
    152 C14        75.1445   63.9192   42.0760 Y5         2 LUT     -0.185793
    153 C15        76.1738   63.9864   41.0728 Y6         2 LUT     -0.057835
    154 C16        68.5048   60.4756   49.5063 Y7         2 LUT     -0.405615
    155 C17        68.9410   62.3711   51.1157 Y7         2 LUT     -0.405615
    156 C18        66.8419   64.7333   47.5368 Y9         2 LUT     -0.369639
    157 C19        69.5741   61.1342   44.6066 W1         2 LUT     -0.333362
    158 C20        73.2320   62.9476   40.7771 W2         2 LUT     -0.323439
    159 C21        87.6048   65.8904   35.0726 Z1         2 LUT      0.406104
    160 C22        88.4866   65.2674   33.9012 Z2         2 LUT     -0.404965
    161 C23        88.6287   66.2198   32.6799 Z3         2 LUT      0.391255
    162 O23        89.2167   65.5635   31.5434 S1         2 LUT     -0.528210
    163 C24        87.3210   66.9920   32.4528 W6         2 LUT     -0.258361
    164 C25        86.3133   67.0883   33.2435 Z5         2 LUT      0.133546
    165 C26        86.2161   66.2930   34.5543 W8         2 LUT     -0.147008
    166 C27        85.3656   66.8490   35.6682 Z7         2 LUT      0.023843
    167 C28        84.3858   66.2066   36.3743 Z8         2 LUT     -0.216987
    168 C29        83.4794   66.7241   37.4248 Z9         2 LUT      0.206524
    169 C30        82.3548   66.0142   37.8679 Y1         2 LUT     -0.215556
    170 C31        81.4804   66.1778   38.9543 Y2         2 LUT      0.025142
    171 C32        80.3539   65.4654   39.2364 Y3         2 LUT     -0.212209
    172 C33        79.4612   65.5868   40.2471 Y4         2 LUT      0.240937
    173 C34        78.3700   64.8229   40.2047 Y5         2 LUT     -0.218862
    174 C35        77.2826   64.7563   41.2018 Y6         2 LUT     -0.023547
    175 C36        88.3350   67.1015   35.7287 Y7         2 LUT     -0.393485
    176 C37        87.4612   64.6675   36.0041 Y7         2 LUT     -0.393485
    177 C38        85.0196   67.8721   32.9355 Y9         2 LUT     -0.387526
    178 C39        83.8160   67.9099   38.1695 W1         2 LUT     -0.322618
    179 C40        79.6999   66.6239   41.3240 W2         2 LUT     -0.358472
    180 H403       80.7020   66.4827   41.7096 R7         2 LUT      0.097720
    181 H402       79.6889   67.6657   41.0719 R7         2 LUT      0.097720
    182 H401       79.1328   66.4322   42.2653 R7         2 LUT      0.097720
    183 H393       82.9245   68.3477   38.6380 R4         2 LUT      0.082505
    184 H392       84.3351   67.5948   39.0848 R4         2 LUT      0.082505
    185 H391       84.3971   68.6122   37.6697 R4         2 LUT      0.082505
    186 H383       85.1486   68.5458   32.0649 R1         2 LUT      0.104030
    187 H382       84.2022   67.1480   32.6718 R1         2 LUT      0.104030
    188 H381       84.6064   68.3337   33.8249 R1         2 LUT      0.104030
    189 H373       86.9292   64.8339   36.9587 T4         2 LUT      0.089537
    190 H372       86.8614   63.8729   35.5240 T4         2 LUT      0.089537
    191 H371       88.4001   64.3546   36.4957 T4         2 LUT      0.089537
    192 H363       87.9087   67.4851   36.6853 T4         2 LUT      0.089537
    193 H362       89.3754   66.7701   35.9295 T4         2 LUT      0.089537
    194 H361       88.3232   67.9859   35.1060 T4         2 LUT      0.089537
    195 H222       89.4816   65.0956   34.2597 U2         2 LUT      0.127376
    196 H221       88.0503   64.2928   33.5983 U2         2 LUT      0.127376
    197 H203       73.4658   61.8495   40.5934 R7         2 LUT      0.087068
    198 H202       72.1428   62.9981   40.8561 R7         2 LUT      0.087068
    199 H201       73.5153   63.3718   39.8105 R7         2 LUT      0.087068
    200 H193       70.0450   60.1844   44.7951 R4         2 LUT      0.089716
    201 H192       68.5216   61.1711   44.8382 R4         2 LUT      0.089716
    202 H191       69.6110   61.3310   43.5151 R4         2 LUT      0.089716
    203 H183       66.9101   64.1820   46.6070 R1         2 LUT      0.094572
    204 H182       65.8038   65.1433   47.5179 R1         2 LUT      0.094572
    205 H181       67.5106   65.5779   47.5782 R1         2 LUT      0.094572
    206 H173       68.4658   62.1745   52.0878 T4         2 LUT      0.093752
    207 H172       69.7806   61.6870   51.0842 T4         2 LUT      0.093752
    208 H171       69.1997   63.4752   51.1909 T4         2 LUT      0.093752
    209 H163       67.9146   59.9256   48.8047 T4         2 LUT      0.093752
    210 H162       69.4971   60.3685   49.1446 T4         2 LUT      0.093752
    211 H161       68.6147   59.9455   50.4511 T4         2 LUT      0.093752
    212 HO3        65.9122   62.9220   52.8891 Q1         2 LUT      0.300121
    213 H8         69.8274   63.7276   46.9761 U7         2 LUT      0.080784
    214 H7         68.1591   61.1854   47.0280 U6         2 LUT      0.042190
    215 H42        65.3142   64.5766   49.5762 U5         2 LUT      0.145166
    216 H41        66.7931   64.9671   50.5248 U5         2 LUT      0.145166
    217 H35        77.5298   65.3347   42.1201 T3         2 LUT      0.077919
    218 H34        78.1512   64.3935   39.2266 T2         2 LUT      0.073626
    219 H32        80.1259   64.6777   38.4887 T1         2 LUT      0.092510
    220 H31        81.7393   66.9574   39.6159 U9         2 LUT      0.070048
    221 H30        82.1032   65.1682   37.2151 U8         2 LUT      0.085442
    222 H3         64.8752   62.9122   50.8319 U3         2 LUT     -0.031596
    223 H28        84.1919   65.2125   36.0432 U7         2 LUT      0.084728
    224 H27        85.6802   67.8317   36.0281 U6         2 LUT      0.087291
    225 H26        85.7491   65.3656   34.2074 Q6         2 LUT      0.075325
    226 H24        87.1498   67.5318   31.5403 Q5         2 LUT      0.094482
    227 H23        89.3696   66.9775   32.9267 U3         2 LUT     -0.024869
    228 H22        66.0415   61.2518   49.8255 U2         2 LUT      0.127376
    229 H21        66.7498   61.0540   51.2786 U2         2 LUT      0.127376
    230 H15        76.1105   63.4034   40.1475 T3         2 LUT      0.093200
    231 H14        75.4771   64.4018   42.9545 T2         2 LUT      0.068865
    232 H12        73.5503   64.0600   44.0932 T1         2 LUT      0.095507
    233 H11        71.4387   62.4039   42.7857 U9         2 LUT      0.068930
    234 H10        71.3917   63.9870   45.4076 U8         2 LUT      0.083911
    235 H1         88.5593   65.2250   30.9668 Q1         2 LUT      0.297311
@<TRIPOS>BOND
    1     6     1 1
    2     7     2 1
    3     8     3 1
    4     9     4 1
    5    11     4 1
    6    12     6 1
    7    13     9 1
    8    16     9 1
    9    25     5 1
   10    25    16 1
   11    26    10 1
   12    26    17 1
   13    27    18 1
   14    28    14 1
   15    28    19 1
   16    29    12 1
   17    30    13 1
   18    31    24 1
   19    32     1 1
   20    32    25 1
   21    33    21 1
   22    33    26 1
   23    34    22 1
   24    34    27 1
   25    35    23 1
   26    35    28 1
   27    36    12 1
   28    36    24 1
   29    37    13 1
   30    37    15 1
   31    38    31 1
   32    39    20 1
   33    39    32 1
   34    40     2 1
   35    40    33 1
   36    41     3 1
   37    41    34 1
   38    42     4 1
   39    42    35 1
   40    43    38 1
   41    44     5 1
   42    44    17 1
   43    44    39 1
   44    45    10 1
   45    45    18 1
   46    45    40 1
   47    46    19 1
   48    46    41 1
   49    47    14 1
   50    47    16 1
   51    47    42 1
   52    48    38 1
   53    49    48 1
   54    50    49 1
   55    51    50 1
   56    52    51 1
   57    53    51 1
   58    54    53 1
   59    55    54 1
   60    56    55 1
   61    57    56 1
   62    58    56 1
   63    59    58 1
   64    60    59 1
   65    61    60 1
   66    62    61 1
   67    63    61 1
   68    64    27 1
   69    64    46 1
   70    65     5 1
   71    65    10 1
   72    65    64 1
   73    65    14 1
   74    66    23 1
   75    67    23 1
   76    68    23 1
   77    69    22 1
   78    70    22 1
   79    71    22 1
   80    72    21 1
   81    73    21 1
   82    74    21 1
   83    75    20 1
   84    76    20 1
   85    77    20 1
   86    78    15 1
   87    79    15 1
   88    80    15 1
   89    81     8 1
   90    82     8 1
   91    83     8 1
   92    84     7 1
   93    85     7 1
   94    86     6 1
   95    87     6 1
   96    88     3 1
   97    89     3 1
   98    90     1 1
   99    91     1 1
  100    92    63 1
  101    93    63 1
  102    94    63 1
  103    95    62 1
  104    96    62 1
  105    97    62 1
  106    98    60 1
  107    99    60 1
  108   100    59 1
  109   101    59 1
  110   102    58 1
  111   103    58 1
  112   104    57 1
  113   105    57 1
  114   106    57 1
  115   107    55 1
  116   108    55 1
  117   109    54 1
  118   110    54 1
  119   111    53 1
  120   112    53 1
  121   113    19 1
  122   114    18 1
  123   115    17 1
  124   116     9 1
  125   117     2 1
  126   118    52 1
  127   119    52 1
  128   120    52 1
  129   121    51 1
  130   122    50 1
  131   123    50 1
  132   124    49 1
  133   125    49 1
  134   126    48 1
  135   127    48 1
  136   128    43 1
  137   129    43 1
  138   130    43 1
  139   131    39 1
  140   132    32 1
  141   133    31 1
  142   134    61 1
  143   135    56 1
  144   136    24 1
  145   137    24 1
  146   139   138 1
  147   140   139 1
  148   141   140 1
  149   142   140 1
  150   143   142 1
  151   144   138 1
  152   144   143 1
  153   145   144 1
  154   146   145 1
  155   147   146 1
  156   148   147 1
  157   149   148 1
  158   150   149 1
  159   151   150 1
  160   152   151 1
  161   153   152 1
  162   154   138 1
  163   155   138 1
  164   156   143 1
  165   157   147 1
  166   158   151 1
  167   160   159 1
  168   161   160 1
  169   162   161 1
  170   163   161 1
  171   164   163 1
  172   165   159 1
  173   165   164 1
  174   166   165 1
  175   167   166 1
  176   168   167 1
  177   169   168 1
  178   170   169 1
  179   171   170 1
  180   172   171 1
  181   173   172 1
  182   174   153 1
  183   174   173 1
  184   175   159 1
  185   176   159 1
  186   177   164 1
  187   178   168 1
  188   179   172 1
  189   180   179 1
  190   181   179 1
  191   182   179 1
  192   183   178 1
  193   184   178 1
  194   185   178 1
  195   186   177 1
  196   187   177 1
  197   188   177 1
  198   189   176 1
  199   190   176 1
  200   191   176 1
  201   192   175 1
  202   193   175 1
  203   194   175 1
  204   195   160 1
  205   196   160 1
  206   197   158 1
  207   198   158 1
  208   199   158 1
  209   200   157 1
  210   201   157 1
  211   202   157 1
  212   203   156 1
  213   204   156 1
  214   205   156 1
  215   206   155 1
  216   207   155 1
  217   208   155 1
  218   209   154 1
  219   210   154 1
  220   211   154 1
  221   212   141 1
  222   213   146 1
  223   214   145 1
  224   215   142 1
  225   216   142 1
  226   217   174 1
  227   218   173 1
  228   219   171 1
  229   220   170 1
  230   221   169 1
  231   222   140 1
  232   223   167 1
  233   224   166 1
  234   225   165 1
  235   226   163 1
  236   227   161 1
  237   228   139 1
  238   229   139 1
  239   230   153 1
  240   231   152 1
  241   232   150 1
  242   233   149 1
  243   234   148 1
  244   235   162 1
  245   65    153 1
  246   65    174 1
@<TRIPOS>SUBSTRUCTURE
      1 CLA               1 ****               0 ****  **** 
      2 LUT             138 ****               0 ****  **** 
