@<TRIPOS>MOLECULE
Cpptraj generated mol2 file.
  235   246     2     0     0
SMALL
USER_CHARGES


@<TRIPOS>ATOM
      1 CAA        77.0910   57.8629   35.3088 a2         1 CLA     -0.055900
      2 CAB        77.7146   62.1365   43.9478 c8         1 CLA     -0.148500
      3 CAC        70.5594   58.5535   43.8706 a2         1 CLA     -0.012600
      4 CAD        72.9011   55.5230   36.8241 ck         1 CLA      0.398800
      5 NA         76.2731   58.5896   38.5797 ns         1 CLA     -0.225500
      6 CBA        78.3553   57.7410   34.4298 a2         1 CLA     -0.135000
      7 CBB        78.8182   62.0546   44.6517 c0         1 CLA     -0.395200
      8 CBC        70.5472   57.0102   44.0336 a3         1 CLA     -0.037700
      9 CBD        74.4039   55.9210   36.4923 a1         1 CLA     -0.053900
     10 NB         76.2724   60.3187   41.0078 nm         1 CLA     -0.295700
     11 OBD        72.2543   54.7737   36.1499 o2         1 CLA     -0.494600
     12 CGA        78.7266   56.3643   33.8562 c4         1 CLA      0.827000
     13 CGD        75.1741   54.5733   36.7162 c4         1 CLA      0.655300
     14 ND         73.3836   57.9565   39.3023 nm         1 CLA     -0.291600
     15 CED        75.2439   52.5337   37.9087 a3         1 CLA      0.005400
     16 CHA        74.7702   57.0411   37.4734 cs         1 CLA     -0.123800
     17 CHB        78.0409   60.0923   39.3281 aa         1 CLA     -0.291900
     18 CHC        74.9961   60.8060   43.1107 aa         1 CLA     -0.090400
     19 CHD        71.6095   58.0378   40.8905 aa         1 CLA     -0.052000
     20 CMA        79.5241   57.6187   38.0776 a3         1 CLA     -0.230700
     21 CMB        79.7457   61.8118   41.3672 a3         1 CLA     -0.180800
     22 CMC        72.6554   60.5156   45.2578 a3         1 CLA     -0.134000
     23 CMD        70.2042   56.0704   38.8042 a3         1 CLA     -0.141100
     24 C1         79.0969   54.1126   34.5219 a2         1 CLA      0.023000
     25 C1A        76.0529   57.6567   37.6490 ac         1 CLA     -0.015100
     26 C1B        77.5381   60.6007   40.5482 cr         1 CLA      0.054700
     27 C1C        73.8292   60.1103   42.8267 cn         1 CLA     -0.005600
     28 C1D        72.1270   57.5923   39.6835 ap         1 CLA     -0.047300
     29 O1A        78.7059   56.0172   32.6892 o2         1 CLA     -0.610800
     30 O1D        76.0592   54.1766   35.9694 o2         1 CLA     -0.558200
     31 C2         79.5465   53.2593   35.7165 c8         1 CLA     -0.325100
     32 C2A        77.2996   57.4334   36.7809 a1         1 CLA      0.098600
     33 C2B        78.3432   61.3594   41.5512 cb         1 CLA      0.088500
     34 C2C        72.7332   59.9370   43.8101 cb         1 CLA      0.053700
     35 C2D        71.5674   56.6287   38.7758 cb         1 CLA      0.058900
     36 O2A        79.1127   55.5650   34.8481 o1         1 CLA     -0.437200
     37 O2D        74.7392   53.8518   37.8617 o1         1 CLA     -0.357600
     38 C3         80.7161   53.1645   36.3461 c5         1 CLA      0.031200
     39 C3A        78.4130   58.3587   37.4537 a1         1 CLA      0.166800
     40 C3B        77.4566   61.5475   42.6413 cb         1 CLA      0.035000
     41 C3C        71.8208   59.0740   43.1821 cb         1 CLA     -0.089900
     42 C3D        72.5788   56.3207   37.8567 cb         1 CLA     -0.035900
     43 C4         81.6975   51.9736   36.1376 a3         1 CLA     -0.053300
     44 C4A        77.5223   59.0959   38.4579 ac         1 CLA      0.001800
     45 C4B        76.1562   60.9604   42.2327 cn         1 CLA     -0.020900
     46 C4C        72.2706   58.8377   41.8543 cr         1 CLA     -0.044400
     47 C4D        73.6735   57.1390   38.2702 c6         1 CLA     -0.046000
     48 C5         81.1739   53.9906   37.5657 a2         1 CLA     -0.070400
     49 C6         82.3408   54.9128   37.4575 a2         1 CLA      0.043900
     50 C7         82.7007   55.5403   38.8097 a2         1 CLA     -0.150000
     51 C8         83.7602   56.6189   38.9731 a1         1 CLA      0.064200
     52 C9         85.2653   56.1726   38.6973 a3         1 CLA     -0.259300
     53 C10        83.7219   57.2599   40.4480 a2         1 CLA     -0.071900
     54 C11        82.2735   57.7294   40.9709 a2         1 CLA      0.014500
     55 C12        82.3102   58.4847   42.3865 a2         1 CLA     -0.112100
     56 C13        83.0298   57.7805   43.6377 a1         1 CLA      0.089200
     57 C14        82.3833   56.4991   44.1742 a3         1 CLA     -0.239100
     58 C15        83.3413   58.9007   44.6838 a2         1 CLA     -0.102200
     59 C16        82.2191   59.5148   45.5383 a2         1 CLA      0.023900
     60 C17        82.8026   60.5446   46.4975 a2         1 CLA     -0.105700
     61 C18        81.7221   61.4550   47.0673 a1         1 CLA      0.206800
     62 C19        80.6249   60.7759   47.8881 a3         1 CLA     -0.280100
     63 C20        82.2685   62.6264   47.8792 a3         1 CLA     -0.280100
     64 NC         73.5656   59.4152   41.6598 nx         1 CLA     -0.309200
     65 MG         74.7967   59.2120   39.9961 mg         1 CLA      0.895000
     66 HMD3       69.5307   56.8672   38.5555 dc         1 CLA      0.064300
     67 HMD2       70.0734   55.5010   37.8667 dc         1 CLA      0.064300
     68 HMD1       69.9311   55.4612   39.6981 dc         1 CLA      0.064300
     69 HMC3       73.3161   60.0509   45.9968 dc         1 CLA      0.052100
     70 HMC2       73.1007   61.5112   45.2272 dc         1 CLA      0.052100
     71 HMC1       71.6360   60.4142   45.5706 dc         1 CLA      0.052100
     72 HMB3       80.3418   60.9177   41.4498 dc         1 CLA      0.063600
     73 HMB2       79.8333   62.2428   40.4542 dc         1 CLA      0.063600
     74 HMB1       79.8310   62.5175   42.2503 dc         1 CLA      0.063600
     75 HMA3       79.2006   56.8228   38.6846 dc         1 CLA      0.058300
     76 HMA2       80.1651   57.3884   37.2009 dc         1 CLA      0.058300
     77 HMA1       80.1731   58.2673   38.6534 dc         1 CLA      0.058300
     78 HED3       74.9802   52.2207   38.9008 dc         1 CLA      0.079300
     79 HED2       74.7329   51.9749   37.1173 dc         1 CLA      0.079300
     80 HED1       76.3305   52.4995   37.7944 dc         1 CLA      0.079300
     81 HBC3       70.6470   56.5478   43.0642 dc         1 CLA      0.016300
     82 HBC2       71.3528   56.6631   44.6809 dc         1 CLA      0.016300
     83 HBC1       69.5776   56.7978   44.4545 dc         1 CLA      0.016300
     84 HBB2       78.8264   62.5724   45.7091 da         1 CLA      0.183000
     85 HBB1       79.7145   61.4822   44.2421 da         1 CLA      0.183000
     86 HBA2       78.2821   58.3118   33.4762 dc         1 CLA      0.029400
     87 HBA1       79.2571   58.2101   34.9599 dc         1 CLA      0.029400
     88 HAC2       70.5021   58.7982   44.9370 dc         1 CLA      0.029300
     89 HAC1       69.6942   58.9501   43.4029 dc         1 CLA      0.029300
     90 HAA2       76.3469   57.2285   34.8444 dc         1 CLA      0.028700
     91 HAA1       76.7561   58.8926   35.4070 dc         1 CLA      0.028700
     92 H203       81.4743   63.3120   48.1933 dc         1 CLA      0.065600
     93 H202       82.8400   62.4502   48.8388 dc         1 CLA      0.065600
     94 H201       82.9378   63.2746   47.2215 dc         1 CLA      0.065600
     95 H193       81.1880   60.4430   48.7802 dc         1 CLA      0.065600
     96 H192       79.8967   61.4709   48.2422 dc         1 CLA      0.065600
     97 H191       80.1296   59.9345   47.4264 dc         1 CLA      0.065600
     98 H172       83.0833   59.9733   47.3438 dc         1 CLA      0.027600
     99 H171       83.5791   61.0788   46.0136 dc         1 CLA      0.027600
    100 H162       81.4744   59.9504   44.8362 dc         1 CLA      0.002900
    101 H161       81.8066   58.7430   46.1791 dc         1 CLA      0.002900
    102 H152       84.1803   58.5322   45.3270 dc         1 CLA      0.029100
    103 H151       83.9101   59.7214   44.1714 dc         1 CLA      0.029100
    104 H143       81.4959   56.6533   44.8213 dc         1 CLA      0.063600
    105 H142       81.9444   55.6836   43.4731 dc         1 CLA      0.063600
    106 H141       83.1138   56.0252   44.7304 dc         1 CLA      0.063600
    107 H122       82.9130   59.3624   42.2507 dc         1 CLA      0.032500
    108 H121       81.3571   58.7619   42.7554 dc         1 CLA      0.032500
    109 H112       81.8793   58.3875   40.2699 dc         1 CLA      0.006600
    110 H111       81.6600   56.8040   41.1322 dc         1 CLA      0.006600
    111 H102       84.0635   56.4794   41.0958 dc         1 CLA      0.024100
    112 H101       84.3043   58.1207   40.3896 dc         1 CLA      0.024100
    113 HHD        70.6649   57.5984   41.2400 da         1 CLA      0.174300
    114 HHC        75.0193   61.3459   44.0416 da         1 CLA      0.136800
    115 HHB        79.0735   60.3574   39.1466 da         1 CLA      0.138300
    116 HBD        74.4706   56.2012   35.4380 dc         1 CLA      0.107700
    117 HAB        76.9259   62.6837   44.4360 da         1 CLA      0.155200
    118 H93        85.6407   55.4728   39.5133 dc         1 CLA      0.069500
    119 H92        85.2457   55.6752   37.7234 dc         1 CLA      0.069500
    120 H91        85.9517   57.0231   38.6237 dc         1 CLA      0.069500
    121 H8         83.4217   57.3864   38.2324 dc         1 CLA      0.029300
    122 H72        81.6843   55.9728   38.9550 dc         1 CLA      0.044400
    123 H71        82.7901   54.6480   39.5070 dc         1 CLA      0.044400
    124 H62        83.2314   54.3165   37.2488 dc         1 CLA      0.015600
    125 H61        82.2368   55.5020   36.5615 dc         1 CLA      0.015600
    126 H52        80.3192   54.6299   37.8776 dc         1 CLA      0.033200
    127 H51        81.4242   53.2625   38.3295 dc         1 CLA      0.033200
    128 H43        81.9720   51.7386   37.1310 dc         1 CLA      0.037000
    129 H42        81.1390   51.1750   35.7024 dc         1 CLA      0.037000
    130 H41        82.4701   52.1693   35.3821 dc         1 CLA      0.037000
    131 H3A        78.7783   59.1744   36.8361 dc         1 CLA      0.041100
    132 H2A        77.5758   56.3826   36.8942 dc         1 CLA      0.083100
    133 H2         78.7569   52.7256   36.2628 da         1 CLA      0.180900
    134 H18        81.1386   61.7803   46.2226 dc         1 CLA     -0.003900
    135 H13        83.9864   57.4505   43.2116 dc         1 CLA      0.019700
    136 H12        78.1542   53.6990   34.1498 dc         1 CLA      0.120400
    137 H11        79.7183   53.9189   33.6669 dc         1 CLA      0.120400
    138 C1         67.6241   61.8398   50.5459 Z1         2 LUT      0.509236
    139 C2         66.1711   61.8971   51.2791 Z2         2 LUT     -0.434695
    140 C3         65.5296   63.1713   51.5393 Z3         2 LUT      0.437453
    141 O3         65.8894   63.5635   52.8739 S1         2 LUT     -0.547129
    142 C4         66.0384   64.2712   50.6339 Z4         2 LUT     -0.468603
    143 C5         66.7182   63.8786   49.3444 Z5         2 LUT      0.279246
    144 C6         67.5705   62.8171   49.2759 Z6         2 LUT     -0.305473
    145 C7         67.9794   62.2901   48.0173 Z7         2 LUT      0.069402
    146 C8         68.6003   62.9829   47.0418 Z8         2 LUT     -0.191631
    147 C9         69.1241   62.5778   45.7471 Z9         2 LUT      0.196698
    148 C10        70.1634   63.2963   45.1172 Y1         2 LUT     -0.208611
    149 C11        70.8753   63.0276   43.8829 Y2         2 LUT      0.030784
    150 C12        71.9650   63.7336   43.5170 Y3         2 LUT     -0.220316
    151 C13        72.7995   63.4417   42.3920 Y4         2 LUT      0.215937
    152 C14        74.0401   63.9811   42.3349 Y5         2 LUT     -0.185793
    153 C15        75.1188   63.9112   41.4258 Y6         2 LUT     -0.057835
    154 C16        67.8997   60.2840   50.3417 Y7         2 LUT     -0.405615
    155 C17        68.6575   62.4971   51.6131 Y7         2 LUT     -0.405615
    156 C18        66.2164   64.8022   48.2053 Y9         2 LUT     -0.369639
    157 C19        68.6134   61.2830   45.1684 W1         2 LUT     -0.333362
    158 C20        72.3529   62.5886   41.2791 W2         2 LUT     -0.323439
    159 C21        86.7147   64.8415   35.6401 Z1         2 LUT      0.406104
    160 C22        87.5012   64.5764   34.3409 Z2         2 LUT     -0.404965
    161 C23        87.5954   65.6575   33.2807 Z3         2 LUT      0.391255
    162 O23        88.3803   65.2213   32.1608 S1         2 LUT     -0.528210
    163 C24        86.3328   66.3188   33.1443 W6         2 LUT     -0.258361
    164 C25        85.2565   66.2597   33.9762 Z5         2 LUT      0.133546
    165 C26        85.2819   65.3697   35.2243 W8         2 LUT     -0.147008
    166 C27        84.5348   65.9769   36.3687 Z7         2 LUT      0.023843
    167 C28        83.3631   65.4648   36.7570 Z8         2 LUT     -0.216987
    168 C29        82.6776   66.0332   37.9178 Z9         2 LUT      0.206524
    169 C30        81.5229   65.3733   38.3111 Y1         2 LUT     -0.215556
    170 C31        80.6693   65.6471   39.3980 Y2         2 LUT      0.025142
    171 C32        79.4293   65.1018   39.6382 Y3         2 LUT     -0.212209
    172 C33        78.4676   65.3389   40.7048 Y4         2 LUT      0.240937
    173 C34        77.2863   64.5757   40.6327 Y5         2 LUT     -0.218862
    174 C35        76.2702   64.6018   41.6213 Y6         2 LUT     -0.023547
    175 C36        87.6173   65.8520   36.4716 Y7         2 LUT     -0.393485
    176 C37        86.6837   63.5857   36.4676 Y7         2 LUT     -0.393485
    177 C38        84.1566   67.1370   33.5512 Y9         2 LUT     -0.387526
    178 C39        83.3576   67.0748   38.8416 W1         2 LUT     -0.322618
    179 C40        78.9745   66.0894   41.9646 W2         2 LUT     -0.358472
    180 H403       78.4372   65.7642   42.8377 R7         2 LUT      0.097720
    181 H402       80.0293   65.9621   42.1274 R7         2 LUT      0.097720
    182 H401       78.7396   67.1159   41.9993 R7         2 LUT      0.097720
    183 H393       82.5919   67.5136   39.5445 R4         2 LUT      0.082505
    184 H392       84.2083   66.7629   39.4578 R4         2 LUT      0.082505
    185 H391       83.7218   68.0494   38.3223 R4         2 LUT      0.082505
    186 H383       83.3454   67.1958   34.1881 R1         2 LUT      0.104030
    187 H382       84.4460   68.1355   33.2035 R1         2 LUT      0.104030
    188 H381       83.5898   66.5988   32.7913 R1         2 LUT      0.104030
    189 H373       86.2713   63.7995   37.4637 T4         2 LUT      0.089537
    190 H372       86.1838   62.7587   35.9512 T4         2 LUT      0.089537
    191 H371       87.6867   63.2617   36.6218 T4         2 LUT      0.089537
    192 H363       87.8014   66.8169   36.0426 T4         2 LUT      0.089537
    193 H362       87.1477   66.2387   37.3656 T4         2 LUT      0.089537
    194 H361       88.5924   65.4539   36.6895 T4         2 LUT      0.089537
    195 H222       88.5135   64.3567   34.5999 U2         2 LUT      0.127376
    196 H221       86.9518   63.7950   33.8523 U2         2 LUT      0.127376
    197 H203       71.7209   63.2278   40.6531 R7         2 LUT      0.087068
    198 H202       73.1487   62.2554   40.5301 R7         2 LUT      0.087068
    199 H201       71.7540   61.7189   41.5421 R7         2 LUT      0.087068
    200 H193       67.6176   61.0160   45.5480 R4         2 LUT      0.089716
    201 H192       68.5123   61.2908   44.0896 R4         2 LUT      0.089716
    202 H191       69.2689   60.4460   45.4334 R4         2 LUT      0.089716
    203 H183       66.9744   65.5902   48.0825 R1         2 LUT      0.094572
    204 H182       66.1319   64.2496   47.2198 R1         2 LUT      0.094572
    205 H181       65.2644   65.2625   48.3847 R1         2 LUT      0.094572
    206 H173       68.8226   61.9079   52.5526 T4         2 LUT      0.093752
    207 H172       69.6837   62.7363   51.2267 T4         2 LUT      0.093752
    208 H171       68.3395   63.3903   51.9968 T4         2 LUT      0.093752
    209 H163       68.2376   59.9168   51.3553 T4         2 LUT      0.093752
    210 H162       67.0582   59.8148   49.8311 T4         2 LUT      0.093752
    211 H161       68.8227   60.0813   49.7908 T4         2 LUT      0.093752
    212 HO3        65.1604   63.3766   53.4579 Q1         2 LUT      0.300121
    213 H8         68.7392   64.0210   47.2945 U7         2 LUT      0.080784
    214 H7         67.8110   61.2331   47.8395 U6         2 LUT      0.042190
    215 H42        65.2595   65.0752   50.5786 U5         2 LUT      0.145166
    216 H41        66.8164   64.7807   51.1919 U5         2 LUT      0.145166
    217 H35        76.3642   65.1061   42.5386 T3         2 LUT      0.077919
    218 H34        77.3172   63.8751   39.8351 T2         2 LUT      0.073626
    219 H32        79.1411   64.3452   38.8755 T1         2 LUT      0.092510
    220 H31        81.0054   66.3542   40.1659 U9         2 LUT      0.070048
    221 H30        81.0449   64.6627   37.6208 U8         2 LUT      0.085442
    222 H3         64.5062   62.9381   51.4267 U3         2 LUT     -0.031596
    223 H28        82.8477   64.7744   36.1421 U7         2 LUT      0.084728
    224 H27        84.9659   66.8142   36.9119 U6         2 LUT      0.087291
    225 H26        84.6519   64.4636   34.9512 Q6         2 LUT      0.075325
    226 H24        86.2185   66.8573   32.1688 Q5         2 LUT      0.094482
    227 H23        88.1030   66.4993   33.8076 U3         2 LUT     -0.024869
    228 H22        65.4635   61.2576   50.7074 U2         2 LUT      0.127376
    229 H21        66.2697   61.4069   52.2709 U2         2 LUT      0.127376
    230 H15        75.0566   63.4485   40.4641 T3         2 LUT      0.093200
    231 H14        74.2404   64.5710   43.2294 T2         2 LUT      0.068865
    232 H12        72.3381   64.4757   44.2505 T1         2 LUT      0.095507
    233 H11        70.5862   62.2222   43.2141 U9         2 LUT      0.068930
    234 H10        70.4793   64.2057   45.6448 U8         2 LUT      0.083911
    235 H1         87.8942   64.5829   31.5775 Q1         2 LUT      0.297311
@<TRIPOS>BOND
    1     6     1 1
    2     7     2 1
    3     8     3 1
    4     9     4 1
    5    11     4 1
    6    12     6 1
    7    13     9 1
    8    16     9 1
    9    25     5 1
   10    25    16 1
   11    26    10 1
   12    26    17 1
   13    27    18 1
   14    28    14 1
   15    28    19 1
   16    29    12 1
   17    30    13 1
   18    31    24 1
   19    32     1 1
   20    32    25 1
   21    33    21 1
   22    33    26 1
   23    34    22 1
   24    34    27 1
   25    35    23 1
   26    35    28 1
   27    36    12 1
   28    36    24 1
   29    37    13 1
   30    37    15 1
   31    38    31 1
   32    39    20 1
   33    39    32 1
   34    40     2 1
   35    40    33 1
   36    41     3 1
   37    41    34 1
   38    42     4 1
   39    42    35 1
   40    43    38 1
   41    44     5 1
   42    44    17 1
   43    44    39 1
   44    45    10 1
   45    45    18 1
   46    45    40 1
   47    46    19 1
   48    46    41 1
   49    47    14 1
   50    47    16 1
   51    47    42 1
   52    48    38 1
   53    49    48 1
   54    50    49 1
   55    51    50 1
   56    52    51 1
   57    53    51 1
   58    54    53 1
   59    55    54 1
   60    56    55 1
   61    57    56 1
   62    58    56 1
   63    59    58 1
   64    60    59 1
   65    61    60 1
   66    62    61 1
   67    63    61 1
   68    64    27 1
   69    64    46 1
   70    65     5 1
   71    65    10 1
   72    65    64 1
   73    65    14 1
   74    66    23 1
   75    67    23 1
   76    68    23 1
   77    69    22 1
   78    70    22 1
   79    71    22 1
   80    72    21 1
   81    73    21 1
   82    74    21 1
   83    75    20 1
   84    76    20 1
   85    77    20 1
   86    78    15 1
   87    79    15 1
   88    80    15 1
   89    81     8 1
   90    82     8 1
   91    83     8 1
   92    84     7 1
   93    85     7 1
   94    86     6 1
   95    87     6 1
   96    88     3 1
   97    89     3 1
   98    90     1 1
   99    91     1 1
  100    92    63 1
  101    93    63 1
  102    94    63 1
  103    95    62 1
  104    96    62 1
  105    97    62 1
  106    98    60 1
  107    99    60 1
  108   100    59 1
  109   101    59 1
  110   102    58 1
  111   103    58 1
  112   104    57 1
  113   105    57 1
  114   106    57 1
  115   107    55 1
  116   108    55 1
  117   109    54 1
  118   110    54 1
  119   111    53 1
  120   112    53 1
  121   113    19 1
  122   114    18 1
  123   115    17 1
  124   116     9 1
  125   117     2 1
  126   118    52 1
  127   119    52 1
  128   120    52 1
  129   121    51 1
  130   122    50 1
  131   123    50 1
  132   124    49 1
  133   125    49 1
  134   126    48 1
  135   127    48 1
  136   128    43 1
  137   129    43 1
  138   130    43 1
  139   131    39 1
  140   132    32 1
  141   133    31 1
  142   134    61 1
  143   135    56 1
  144   136    24 1
  145   137    24 1
  146   139   138 1
  147   140   139 1
  148   141   140 1
  149   142   140 1
  150   143   142 1
  151   144   138 1
  152   144   143 1
  153   145   144 1
  154   146   145 1
  155   147   146 1
  156   148   147 1
  157   149   148 1
  158   150   149 1
  159   151   150 1
  160   152   151 1
  161   153   152 1
  162   154   138 1
  163   155   138 1
  164   156   143 1
  165   157   147 1
  166   158   151 1
  167   160   159 1
  168   161   160 1
  169   162   161 1
  170   163   161 1
  171   164   163 1
  172   165   159 1
  173   165   164 1
  174   166   165 1
  175   167   166 1
  176   168   167 1
  177   169   168 1
  178   170   169 1
  179   171   170 1
  180   172   171 1
  181   173   172 1
  182   174   153 1
  183   174   173 1
  184   175   159 1
  185   176   159 1
  186   177   164 1
  187   178   168 1
  188   179   172 1
  189   180   179 1
  190   181   179 1
  191   182   179 1
  192   183   178 1
  193   184   178 1
  194   185   178 1
  195   186   177 1
  196   187   177 1
  197   188   177 1
  198   189   176 1
  199   190   176 1
  200   191   176 1
  201   192   175 1
  202   193   175 1
  203   194   175 1
  204   195   160 1
  205   196   160 1
  206   197   158 1
  207   198   158 1
  208   199   158 1
  209   200   157 1
  210   201   157 1
  211   202   157 1
  212   203   156 1
  213   204   156 1
  214   205   156 1
  215   206   155 1
  216   207   155 1
  217   208   155 1
  218   209   154 1
  219   210   154 1
  220   211   154 1
  221   212   141 1
  222   213   146 1
  223   214   145 1
  224   215   142 1
  225   216   142 1
  226   217   174 1
  227   218   173 1
  228   219   171 1
  229   220   170 1
  230   221   169 1
  231   222   140 1
  232   223   167 1
  233   224   166 1
  234   225   165 1
  235   226   163 1
  236   227   161 1
  237   228   139 1
  238   229   139 1
  239   230   153 1
  240   231   152 1
  241   232   150 1
  242   233   149 1
  243   234   148 1
  244   235   162 1
  245   65    153 1
  246   65    174 1
@<TRIPOS>SUBSTRUCTURE
      1 CLA               1 ****               0 ****  **** 
      2 LUT             138 ****               0 ****  **** 
