@<TRIPOS>MOLECULE
Cpptraj generated mol2 file.
  235   246     2     0     0
SMALL
USER_CHARGES


@<TRIPOS>ATOM
      1 CAA        79.7177   58.6398   34.1516 a2         1 CLA     -0.055900
      2 CAB        79.2526   62.1834   43.2313 c8         1 CLA     -0.148500
      3 CAC        72.4743   57.8088   42.4576 a2         1 CLA     -0.012600
      4 CAD        75.3571   56.0270   35.0698 ck         1 CLA      0.398800
      5 NA         78.5049   58.7038   37.6812 ns         1 CLA     -0.225500
      6 CBA        81.0858   58.4682   33.3376 a2         1 CLA     -0.135000
      7 CBB        80.3655   62.2141   43.9842 c0         1 CLA     -0.395200
      8 CBC        72.7088   56.3028   42.5464 a3         1 CLA     -0.037700
      9 CBD        76.8384   56.5814   34.8769 a1         1 CLA     -0.053900
     10 NB         78.1486   60.1939   40.2270 nm         1 CLA     -0.295700
     11 OBD        74.7022   55.3186   34.3440 o2         1 CLA     -0.494600
     12 CGA        81.5557   57.0494   32.9648 c4         1 CLA      0.827000
     13 CGD        77.6935   55.4073   34.6317 c4         1 CLA      0.655300
     14 ND         75.5602   57.9759   38.0579 nm         1 CLA     -0.291600
     15 CED        78.6254   53.4463   35.4341 a3         1 CLA      0.005400
     16 CHA        77.1289   57.4512   36.1465 cs         1 CLA     -0.123800
     17 CHB        80.1188   60.2160   38.6870 aa         1 CLA     -0.291900
     18 CHC        76.6752   60.6173   42.1620 aa         1 CLA     -0.090400
     19 CHD        73.7252   57.7549   39.5929 aa         1 CLA     -0.052000
     20 CMA        81.9516   58.1428   37.0570 a3         1 CLA     -0.230700
     21 CMB        81.3951   61.9324   40.8518 a3         1 CLA     -0.180800
     22 CMC        74.1770   60.0996   43.9094 a3         1 CLA     -0.134000
     23 CMD        72.4583   56.0337   37.2368 a3         1 CLA     -0.141100
     24 C1         82.1547   54.9176   33.8567 a2         1 CLA      0.023000
     25 C1A        78.3992   58.0411   36.4950 ac         1 CLA     -0.015100
     26 C1B        79.4240   60.6145   39.8508 cr         1 CLA      0.054700
     27 C1C        75.6205   59.7879   41.7744 cn         1 CLA     -0.005600
     28 C1D        74.2890   57.4430   38.3078 ap         1 CLA     -0.047300
     29 O1A        81.5221   56.6317   31.8411 o2         1 CLA     -0.610800
     30 O1D        78.4446   55.3808   33.6416 o2         1 CLA     -0.558200
     31 C2         83.1664   54.4209   34.8881 c8         1 CLA     -0.325100
     32 C2A        79.7212   58.0563   35.6432 a1         1 CLA      0.098600
     33 C2B        80.0069   61.3733   40.9654 cb         1 CLA      0.088500
     34 C2C        74.4434   59.4775   42.5829 cb         1 CLA      0.053700
     35 C2D        73.8261   56.6471   37.2570 cb         1 CLA      0.058900
     36 O2A        81.9139   56.3260   34.0629 o1         1 CLA     -0.437200
     37 O2D        77.7039   54.5301   35.6754 o1         1 CLA     -0.357600
     38 C3         84.0428   53.4174   34.7627 c5         1 CLA      0.031200
     39 C3A        80.6357   58.8391   36.5887 a1         1 CLA      0.166800
     40 C3B        79.0206   61.5518   41.9587 cb         1 CLA      0.035000
     41 C3C        73.6296   58.5878   41.9577 cb         1 CLA     -0.089900
     42 C3D        74.9352   56.5969   36.3534 cb         1 CLA     -0.035900
     43 C4         83.6996   52.0025   35.0468 a3         1 CLA     -0.053300
     44 C4A        79.7161   59.3446   37.6847 ac         1 CLA      0.001800
     45 C4B        77.8820   60.7506   41.4491 cn         1 CLA     -0.020900
     46 C4C        74.2987   58.4419   40.6319 cr         1 CLA     -0.044400
     47 C4D        75.9517   57.4694   36.8884 c6         1 CLA     -0.046000
     48 C5         85.4599   53.7966   34.3056 a2         1 CLA     -0.070400
     49 C6         86.0473   55.1498   34.7735 a2         1 CLA      0.043900
     50 C7         86.3805   55.1982   36.2751 a2         1 CLA     -0.150000
     51 C8         86.3161   56.5730   36.9410 a1         1 CLA      0.064200
     52 C9         87.4834   57.5307   36.3806 a3         1 CLA     -0.259300
     53 C10        86.5833   56.2351   38.4776 a2         1 CLA     -0.071900
     54 C11        86.5664   57.5098   39.3991 a2         1 CLA      0.014500
     55 C12        86.7266   57.1510   40.8657 a2         1 CLA     -0.112100
     56 C13        86.7408   58.4246   41.8875 a1         1 CLA      0.089200
     57 C14        88.1420   59.0599   41.9418 a3         1 CLA     -0.239100
     58 C15        86.2278   58.0483   43.2865 a2         1 CLA     -0.102200
     59 C16        86.3044   59.1422   44.3958 a2         1 CLA      0.023900
     60 C17        85.6561   58.5502   45.7046 a2         1 CLA     -0.105700
     61 C18        85.4239   59.5120   46.9152 a1         1 CLA      0.206800
     62 C19        84.3630   60.5948   46.5929 a3         1 CLA     -0.280100
     63 C20        85.0118   58.7971   48.1933 a3         1 CLA     -0.280100
     64 NC         75.4801   59.1035   40.6145 nx         1 CLA     -0.309200
     65 MG         76.8050   59.1223   39.0904 mg         1 CLA      0.895000
     66 HMD3       72.4184   55.3980   36.4050 dc         1 CLA      0.064300
     67 HMD2       72.3723   55.4287   38.1316 dc         1 CLA      0.064300
     68 HMD1       71.7359   56.8821   37.2335 dc         1 CLA      0.064300
     69 HMC3       74.7818   60.9698   44.1861 dc         1 CLA      0.052100
     70 HMC2       73.0527   60.4047   43.8048 dc         1 CLA      0.052100
     71 HMC1       74.2048   59.3349   44.6202 dc         1 CLA      0.052100
     72 HMB3       81.6370   62.2603   39.8599 dc         1 CLA      0.063600
     73 HMB2       81.3747   62.8424   41.4187 dc         1 CLA      0.063600
     74 HMB1       82.1764   61.3250   41.2562 dc         1 CLA      0.063600
     75 HMA3       82.5308   58.7259   37.7251 dc         1 CLA      0.058300
     76 HMA2       81.8841   57.0845   37.5787 dc         1 CLA      0.058300
     77 HMA1       82.5658   57.9019   36.2501 dc         1 CLA      0.058300
     78 HED3       78.6154   52.6909   36.2057 dc         1 CLA      0.079300
     79 HED2       78.5049   52.9589   34.4856 dc         1 CLA      0.079300
     80 HED1       79.6794   53.8784   35.4703 dc         1 CLA      0.079300
     81 HBC3       73.0891   55.7365   41.6679 dc         1 CLA      0.016300
     82 HBC2       73.5153   56.1749   43.1835 dc         1 CLA      0.016300
     83 HBC1       71.8049   55.8826   42.9351 dc         1 CLA      0.016300
     84 HBB2       80.4038   62.8387   44.8871 da         1 CLA      0.183000
     85 HBB1       81.2245   61.6486   43.6453 da         1 CLA      0.183000
     86 HBA2       80.9309   58.9863   32.4360 dc         1 CLA      0.029400
     87 HBA1       81.7741   58.9981   33.9928 dc         1 CLA      0.029400
     88 HAC2       72.2530   58.1538   43.4598 dc         1 CLA      0.029300
     89 HAC1       71.5400   57.9120   41.8712 dc         1 CLA      0.029300
     90 HAA2       78.9492   58.1156   33.6078 dc         1 CLA      0.028700
     91 HAA1       79.4799   59.6854   34.3155 dc         1 CLA      0.028700
     92 H203       85.7533   58.0507   48.3585 dc         1 CLA      0.065600
     93 H202       84.7385   59.3380   49.0963 dc         1 CLA      0.065600
     94 H201       84.1406   58.1964   47.8730 dc         1 CLA      0.065600
     95 H193       84.2788   61.1459   47.6017 dc         1 CLA      0.065600
     96 H192       84.5664   61.3120   45.8061 dc         1 CLA      0.065600
     97 H191       83.4971   60.0270   46.2735 dc         1 CLA      0.065600
     98 H172       84.6487   58.2981   45.4014 dc         1 CLA      0.027600
     99 H171       86.1301   57.6742   46.0607 dc         1 CLA      0.027600
    100 H162       87.2835   59.5372   44.6177 dc         1 CLA      0.002900
    101 H161       85.8826   60.0449   43.8893 dc         1 CLA      0.002900
    102 H152       85.2146   57.7012   43.1183 dc         1 CLA      0.029100
    103 H151       86.9232   57.2321   43.4254 dc         1 CLA      0.029100
    104 H143       88.3568   59.5748   41.0006 dc         1 CLA      0.063600
    105 H142       88.1152   59.7468   42.7247 dc         1 CLA      0.063600
    106 H141       88.8405   58.3463   42.3375 dc         1 CLA      0.063600
    107 H122       85.9758   56.4330   41.1698 dc         1 CLA      0.032500
    108 H121       87.6927   56.7068   40.9899 dc         1 CLA      0.032500
    109 H112       87.3428   58.2285   39.0241 dc         1 CLA      0.006600
    110 H111       85.5639   57.9869   39.3790 dc         1 CLA      0.006600
    111 H102       85.8216   55.6046   38.8546 dc         1 CLA      0.024100
    112 H101       87.5974   55.6394   38.5879 dc         1 CLA      0.024100
    113 HHD        72.6733   57.4011   39.6835 da         1 CLA      0.174300
    114 HHC        76.6011   61.1493   43.1356 da         1 CLA      0.136800
    115 HHB        81.1682   60.4686   38.6951 da         1 CLA      0.138300
    116 HBD        76.8839   57.2473   34.0963 dc         1 CLA      0.107700
    117 HAB        78.3686   62.6197   43.6829 da         1 CLA      0.155200
    118 H93        87.1792   58.5917   36.5133 dc         1 CLA      0.069500
    119 H92        88.4713   57.2345   36.7736 dc         1 CLA      0.069500
    120 H91        87.5160   57.3250   35.3157 dc         1 CLA      0.069500
    121 H8         85.3249   57.0161   36.7605 dc         1 CLA      0.029300
    122 H72        85.6458   54.5541   36.7820 dc         1 CLA      0.044400
    123 H71        87.3717   54.6823   36.4948 dc         1 CLA      0.044400
    124 H62        86.9379   55.2629   34.2134 dc         1 CLA      0.015600
    125 H61        85.3243   55.9007   34.4041 dc         1 CLA      0.015600
    126 H52        86.1159   53.0276   34.6731 dc         1 CLA      0.033200
    127 H51        85.4373   53.7158   33.2377 dc         1 CLA      0.033200
    128 H43        82.6108   52.0022   35.1785 dc         1 CLA      0.037000
    129 H42        83.9763   51.4481   34.1261 dc         1 CLA      0.037000
    130 H41        84.1416   51.6629   35.9341 dc         1 CLA      0.037000
    131 H3A        80.9255   59.8028   36.1174 dc         1 CLA      0.041100
    132 H2A        80.0641   57.0845   35.4192 dc         1 CLA      0.083100
    133 H2         83.1080   54.8850   35.8851 da         1 CLA      0.180900
    134 H18        86.3662   60.0115   47.1828 dc         1 CLA     -0.003900
    135 H13        86.0050   59.1600   41.5644 dc         1 CLA      0.019700
    136 H12        81.2073   54.3638   33.9513 dc         1 CLA      0.120400
    137 H11        82.5610   54.6155   32.8704 dc         1 CLA      0.120400
    138 C1         68.9476   61.8200   49.2121 Z1         2 LUT      0.509236
    139 C2         67.4987   61.5656   49.8095 Z2         2 LUT     -0.434695
    140 C3         66.7347   62.7841   50.3191 Z3         2 LUT      0.437453
    141 O3         67.1477   63.2367   51.6575 S1         2 LUT     -0.547129
    142 C4         66.9780   63.9582   49.4151 Z4         2 LUT     -0.468603
    143 C5         67.7065   63.7303   48.1143 Z5         2 LUT      0.279246
    144 C6         68.6616   62.7678   48.0059 Z6         2 LUT     -0.305473
    145 C7         69.2675   62.3384   46.6654 Z7         2 LUT      0.069402
    146 C8         70.4583   62.7528   46.1339 Z8         2 LUT     -0.191631
    147 C9         70.9464   62.3364   44.7857 Z9         2 LUT      0.196698
    148 C10        71.9355   63.1376   44.1981 Y1         2 LUT     -0.208611
    149 C11        72.7327   62.9982   43.0238 Y2         2 LUT      0.030784
    150 C12        73.9379   63.6575   42.9266 Y3         2 LUT     -0.220316
    151 C13        74.8951   63.5298   41.8332 Y4         2 LUT      0.215937
    152 C14        76.1231   64.2311   42.0756 Y5         2 LUT     -0.185793
    153 C15        77.2789   64.2921   41.2894 Y6         2 LUT     -0.057835
    154 C16        69.4936   60.4395   48.8110 Y7         2 LUT     -0.405615
    155 C17        69.8781   62.4837   50.2945 Y7         2 LUT     -0.405615
    156 C18        67.0253   64.5968   47.0171 Y9         2 LUT     -0.369639
    157 C19        70.4312   61.0795   44.1334 W1         2 LUT     -0.333362
    158 C20        74.5476   62.8596   40.5472 W2         2 LUT     -0.323439
    159 C21        88.3641   65.8553   34.9846 Z1         2 LUT      0.406104
    160 C22        89.0890   65.3049   33.7553 Z2         2 LUT     -0.404965
    161 C23        89.1665   66.2737   32.5634 Z3         2 LUT      0.391255
    162 O23        89.8745   65.6381   31.5149 S1         2 LUT     -0.528210
    163 C24        87.7854   66.9035   32.3061 W6         2 LUT     -0.258361
    164 C25        86.7569   67.0003   33.1927 Z5         2 LUT      0.133546
    165 C26        86.8884   66.2859   34.5504 W8         2 LUT     -0.147008
    166 C27        86.1644   67.0149   35.7087 Z7         2 LUT      0.023843
    167 C28        85.1973   66.5112   36.4685 Z8         2 LUT     -0.216987
    168 C29        84.4775   67.0716   37.6002 Z9         2 LUT      0.206524
    169 C30        83.4439   66.3427   38.1326 Y1         2 LUT     -0.215556
    170 C31        82.4944   66.6325   39.1437 Y2         2 LUT      0.025142
    171 C32        81.4562   65.8075   39.4388 Y3         2 LUT     -0.212209
    172 C33        80.5007   66.0117   40.5415 Y4         2 LUT      0.240937
    173 C34        79.4635   65.1644   40.5772 Y5         2 LUT     -0.218862
    174 C35        78.2832   65.1461   41.3712 Y6         2 LUT     -0.023547
    175 C36        89.1835   66.9671   35.5890 Y7         2 LUT     -0.393485
    176 C37        88.3189   64.7376   36.0592 Y7         2 LUT     -0.393485
    177 C38        85.5133   67.8198   32.9426 Y9         2 LUT     -0.387526
    178 C39        84.9204   68.3890   38.0869 W1         2 LUT     -0.322618
    179 C40        80.6653   67.2079   41.4290 W2         2 LUT     -0.358472
    180 H403       80.3881   68.1961   40.9856 R7         2 LUT      0.097720
    181 H402       80.0816   67.1714   42.2832 R7         2 LUT      0.097720
    182 H401       81.7058   67.2759   41.6214 R7         2 LUT      0.097720
    183 H393       85.9807   68.2969   38.3800 R4         2 LUT      0.082505
    184 H392       85.0728   69.0484   37.1781 R4         2 LUT      0.082505
    185 H391       84.3342   68.9254   38.7860 R4         2 LUT      0.082505
    186 H383       84.6233   67.1278   32.9092 R1         2 LUT      0.104030
    187 H382       85.3357   68.4839   33.8205 R1         2 LUT      0.104030
    188 H381       85.5609   68.3629   31.9782 R1         2 LUT      0.104030
    189 H373       87.6389   63.8731   35.8138 T4         2 LUT      0.089537
    190 H372       89.2651   64.1924   36.2634 T4         2 LUT      0.089537
    191 H371       87.9140   65.1514   36.9723 T4         2 LUT      0.089537
    192 H363       89.1056   67.7883   34.8158 T4         2 LUT      0.089537
    193 H362       88.7397   67.2982   36.4584 T4         2 LUT      0.089537
    194 H361       90.1862   66.7980   35.8111 T4         2 LUT      0.089537
    195 H222       90.1575   65.1465   33.9755 U2         2 LUT      0.127376
    196 H221       88.5853   64.4272   33.3847 U2         2 LUT      0.127376
    197 H203       75.1861   63.2243   39.7334 R7         2 LUT      0.087068
    198 H202       74.6839   61.7690   40.5918 R7         2 LUT      0.087068
    199 H201       73.5077   62.9742   40.2096 R7         2 LUT      0.087068
    200 H193       70.5673   60.2544   44.8298 R4         2 LUT      0.089716
    201 H192       69.3042   61.0357   44.0186 R4         2 LUT      0.089716
    202 H191       71.0001   60.7792   43.2091 R4         2 LUT      0.089716
    203 H183       67.2152   65.5911   47.2070 R1         2 LUT      0.094572
    204 H182       67.3682   64.3713   45.9943 R1         2 LUT      0.094572
    205 H181       65.9123   64.4286   47.0822 R1         2 LUT      0.094572
    206 H173       69.4794   63.4513   50.6617 T4         2 LUT      0.093752
    207 H172       69.8789   61.7781   51.1527 T4         2 LUT      0.093752
    208 H171       70.9081   62.6021   50.0073 T4         2 LUT      0.093752
    209 H163       68.9544   60.0033   47.9455 T4         2 LUT      0.093752
    210 H162       70.5091   60.4789   48.3218 T4         2 LUT      0.093752
    211 H161       69.6522   59.6777   49.5616 T4         2 LUT      0.093752
    212 HO3        66.9043   62.5936   52.2767 Q1         2 LUT      0.300121
    213 H8         70.9475   63.5723   46.6691 U7         2 LUT      0.080784
    214 H7         68.6094   61.6070   46.1799 U6         2 LUT      0.042190
    215 H42        65.9604   64.3310   49.2202 U5         2 LUT      0.145166
    216 H41        67.4178   64.8076   49.9724 U5         2 LUT      0.145166
    217 H35        78.2045   65.6879   42.2944 T3         2 LUT      0.077919
    218 H34        79.4528   64.5152   39.6920 T2         2 LUT      0.073626
    219 H32        81.3587   64.9195   38.7919 T1         2 LUT      0.092510
    220 H31        82.6691   67.6498   39.5475 U9         2 LUT      0.070048
    221 H30        83.3970   65.3562   37.7328 U8         2 LUT      0.085442
    222 H3         65.6874   62.4891   50.2610 U3         2 LUT     -0.031596
    223 H28        84.8316   65.5436   36.0733 U7         2 LUT      0.084728
    224 H27        86.5108   68.0116   35.9570 U6         2 LUT      0.087291
    225 H26        86.4295   65.3117   34.3850 Q6         2 LUT      0.075325
    226 H24        87.5424   67.4186   31.3585 Q5         2 LUT      0.094482
    227 H23        89.7413   67.1232   32.8979 U3         2 LUT     -0.024869
    228 H22        66.7745   61.1828   49.0135 U2         2 LUT      0.127376
    229 H21        67.5347   60.8769   50.6626 U2         2 LUT      0.127376
    230 H15        77.3197   63.5949   40.4523 T3         2 LUT      0.093200
    231 H14        76.2119   64.8211   42.9907 T2         2 LUT      0.068865
    232 H12        74.2539   64.2532   43.7802 T1         2 LUT      0.095507
    233 H11        72.3914   62.4293   42.1407 U9         2 LUT      0.068930
    234 H10        72.2555   63.9704   44.8775 U8         2 LUT      0.083911
    235 H1         89.2821   64.9602   31.1109 Q1         2 LUT      0.297311
@<TRIPOS>BOND
    1     6     1 1
    2     7     2 1
    3     8     3 1
    4     9     4 1
    5    11     4 1
    6    12     6 1
    7    13     9 1
    8    16     9 1
    9    25     5 1
   10    25    16 1
   11    26    10 1
   12    26    17 1
   13    27    18 1
   14    28    14 1
   15    28    19 1
   16    29    12 1
   17    30    13 1
   18    31    24 1
   19    32     1 1
   20    32    25 1
   21    33    21 1
   22    33    26 1
   23    34    22 1
   24    34    27 1
   25    35    23 1
   26    35    28 1
   27    36    12 1
   28    36    24 1
   29    37    13 1
   30    37    15 1
   31    38    31 1
   32    39    20 1
   33    39    32 1
   34    40     2 1
   35    40    33 1
   36    41     3 1
   37    41    34 1
   38    42     4 1
   39    42    35 1
   40    43    38 1
   41    44     5 1
   42    44    17 1
   43    44    39 1
   44    45    10 1
   45    45    18 1
   46    45    40 1
   47    46    19 1
   48    46    41 1
   49    47    14 1
   50    47    16 1
   51    47    42 1
   52    48    38 1
   53    49    48 1
   54    50    49 1
   55    51    50 1
   56    52    51 1
   57    53    51 1
   58    54    53 1
   59    55    54 1
   60    56    55 1
   61    57    56 1
   62    58    56 1
   63    59    58 1
   64    60    59 1
   65    61    60 1
   66    62    61 1
   67    63    61 1
   68    64    27 1
   69    64    46 1
   70    65     5 1
   71    65    10 1
   72    65    64 1
   73    65    14 1
   74    66    23 1
   75    67    23 1
   76    68    23 1
   77    69    22 1
   78    70    22 1
   79    71    22 1
   80    72    21 1
   81    73    21 1
   82    74    21 1
   83    75    20 1
   84    76    20 1
   85    77    20 1
   86    78    15 1
   87    79    15 1
   88    80    15 1
   89    81     8 1
   90    82     8 1
   91    83     8 1
   92    84     7 1
   93    85     7 1
   94    86     6 1
   95    87     6 1
   96    88     3 1
   97    89     3 1
   98    90     1 1
   99    91     1 1
  100    92    63 1
  101    93    63 1
  102    94    63 1
  103    95    62 1
  104    96    62 1
  105    97    62 1
  106    98    60 1
  107    99    60 1
  108   100    59 1
  109   101    59 1
  110   102    58 1
  111   103    58 1
  112   104    57 1
  113   105    57 1
  114   106    57 1
  115   107    55 1
  116   108    55 1
  117   109    54 1
  118   110    54 1
  119   111    53 1
  120   112    53 1
  121   113    19 1
  122   114    18 1
  123   115    17 1
  124   116     9 1
  125   117     2 1
  126   118    52 1
  127   119    52 1
  128   120    52 1
  129   121    51 1
  130   122    50 1
  131   123    50 1
  132   124    49 1
  133   125    49 1
  134   126    48 1
  135   127    48 1
  136   128    43 1
  137   129    43 1
  138   130    43 1
  139   131    39 1
  140   132    32 1
  141   133    31 1
  142   134    61 1
  143   135    56 1
  144   136    24 1
  145   137    24 1
  146   139   138 1
  147   140   139 1
  148   141   140 1
  149   142   140 1
  150   143   142 1
  151   144   138 1
  152   144   143 1
  153   145   144 1
  154   146   145 1
  155   147   146 1
  156   148   147 1
  157   149   148 1
  158   150   149 1
  159   151   150 1
  160   152   151 1
  161   153   152 1
  162   154   138 1
  163   155   138 1
  164   156   143 1
  165   157   147 1
  166   158   151 1
  167   160   159 1
  168   161   160 1
  169   162   161 1
  170   163   161 1
  171   164   163 1
  172   165   159 1
  173   165   164 1
  174   166   165 1
  175   167   166 1
  176   168   167 1
  177   169   168 1
  178   170   169 1
  179   171   170 1
  180   172   171 1
  181   173   172 1
  182   174   153 1
  183   174   173 1
  184   175   159 1
  185   176   159 1
  186   177   164 1
  187   178   168 1
  188   179   172 1
  189   180   179 1
  190   181   179 1
  191   182   179 1
  192   183   178 1
  193   184   178 1
  194   185   178 1
  195   186   177 1
  196   187   177 1
  197   188   177 1
  198   189   176 1
  199   190   176 1
  200   191   176 1
  201   192   175 1
  202   193   175 1
  203   194   175 1
  204   195   160 1
  205   196   160 1
  206   197   158 1
  207   198   158 1
  208   199   158 1
  209   200   157 1
  210   201   157 1
  211   202   157 1
  212   203   156 1
  213   204   156 1
  214   205   156 1
  215   206   155 1
  216   207   155 1
  217   208   155 1
  218   209   154 1
  219   210   154 1
  220   211   154 1
  221   212   141 1
  222   213   146 1
  223   214   145 1
  224   215   142 1
  225   216   142 1
  226   217   174 1
  227   218   173 1
  228   219   171 1
  229   220   170 1
  230   221   169 1
  231   222   140 1
  232   223   167 1
  233   224   166 1
  234   225   165 1
  235   226   163 1
  236   227   161 1
  237   228   139 1
  238   229   139 1
  239   230   153 1
  240   231   152 1
  241   232   150 1
  242   233   149 1
  243   234   148 1
  244   235   162 1
  245   65    153 1
  246   65    174 1
@<TRIPOS>SUBSTRUCTURE
      1 CLA               1 ****               0 ****  **** 
      2 LUT             138 ****               0 ****  **** 
