@<TRIPOS>MOLECULE
Cpptraj generated mol2 file.
  235   246     2     0     0
SMALL
USER_CHARGES


@<TRIPOS>ATOM
      1 CAA        77.4240   57.4412   33.0248 a2         1 CLA     -0.055900
      2 CAB        77.2673   61.3896   41.9007 c8         1 CLA     -0.148500
      3 CAC        70.5326   56.9666   41.5796 a2         1 CLA     -0.012600
      4 CAD        73.2017   54.6475   34.1161 ck         1 CLA      0.398800
      5 NA         76.2784   57.8430   36.3216 ns         1 CLA     -0.225500
      6 CBA        78.6943   57.2042   32.1459 a2         1 CLA     -0.135000
      7 CBB        77.0202   60.7620   43.1427 c0         1 CLA     -0.395200
      8 CBC        70.8549   55.5134   42.0127 a3         1 CLA     -0.037700
      9 CBD        74.6456   55.2512   33.8337 a1         1 CLA     -0.053900
     10 NB         76.0849   59.4325   38.9253 nm         1 CLA     -0.295700
     11 OBD        72.5714   53.8941   33.3668 o2         1 CLA     -0.494600
     12 CGA        79.1992   55.7908   31.9464 c4         1 CLA      0.827000
     13 CGD        75.5600   54.0990   33.7016 c4         1 CLA      0.655300
     14 ND         73.5089   56.9149   36.9242 nm         1 CLA     -0.291600
     15 CED        76.7059   52.5533   35.2120 a3         1 CLA      0.005400
     16 CHA        74.9656   56.2471   34.9796 cs         1 CLA     -0.123800
     17 CHB        77.9988   59.2366   37.4476 aa         1 CLA     -0.291900
     18 CHC        74.7757   59.6243   40.9778 aa         1 CLA     -0.090400
     19 CHD        71.7165   56.8282   38.5408 aa         1 CLA     -0.052000
     20 CMA        79.6769   56.8870   36.0209 a3         1 CLA     -0.230700
     21 CMB        79.3719   61.1180   39.4441 a3         1 CLA     -0.180800
     22 CMC        72.5516   58.9487   43.0370 a3         1 CLA     -0.134000
     23 CMD        70.4318   54.6250   36.5221 a3         1 CLA     -0.141100
     24 C1         80.0613   53.8595   33.1175 a2         1 CLA      0.023000
     25 C1A        76.1219   56.9863   35.2579 ac         1 CLA     -0.015100
     26 C1B        77.3939   59.7074   38.6300 cr         1 CLA      0.054700
     27 C1C        73.6087   58.8793   40.6929 cn         1 CLA     -0.005600
     28 C1D        72.2750   56.3545   37.3319 ap         1 CLA     -0.047300
     29 O1A        79.1413   55.2208   30.8750 o2         1 CLA     -0.610800
     30 O1D        76.3130   53.8608   32.7813 o2         1 CLA     -0.558200
     31 C2         80.6888   53.5598   34.4408 c8         1 CLA     -0.325100
     32 C2A        77.5080   56.9025   34.4989 a1         1 CLA      0.098600
     33 C2B        78.0005   60.4638   39.6336 cb         1 CLA      0.088500
     34 C2C        72.5768   58.4474   41.6516 cb         1 CLA      0.053700
     35 C2D        71.7304   55.3657   36.3813 cb         1 CLA      0.058900
     36 O2A        79.7370   55.2354   33.0949 o1         1 CLA     -0.437200
     37 O2D        75.5993   53.4586   34.9204 o1         1 CLA     -0.357600
     38 C3         81.3041   52.4046   34.7428 c5         1 CLA      0.031200
     39 C3A        78.4981   57.7830   35.3851 a1         1 CLA      0.166800
     40 C3B        77.0108   60.7054   40.6136 cb         1 CLA      0.035000
     41 C3C        71.6800   57.7120   40.8698 cb         1 CLA     -0.089900
     42 C3D        72.8174   55.3061   35.4097 cb         1 CLA     -0.035900
     43 C4         80.6206   51.2393   35.3803 a3         1 CLA     -0.053300
     44 C4A        77.5407   58.3088   36.4474 ac         1 CLA      0.001800
     45 C4B        75.8798   59.9034   40.1481 cn         1 CLA     -0.020900
     46 C4C        72.1894   57.6196   39.5631 cr         1 CLA     -0.044400
     47 C4D        73.8478   56.1871   35.7982 c6         1 CLA     -0.046000
     48 C5         82.7716   52.1856   34.4156 a2         1 CLA     -0.070400
     49 C6         83.7843   53.3466   34.7389 a2         1 CLA      0.043900
     50 C7         83.6825   53.7666   36.2017 a2         1 CLA     -0.150000
     51 C8         83.8546   55.3499   36.4357 a1         1 CLA      0.064200
     52 C9         85.0266   56.0113   35.7099 a3         1 CLA     -0.259300
     53 C10        83.8698   55.7381   37.9075 a2         1 CLA     -0.071900
     54 C11        82.4382   55.5768   38.5787 a2         1 CLA      0.014500
     55 C12        82.5631   56.0326   40.0680 a2         1 CLA     -0.112100
     56 C13        81.3197   56.1699   40.9380 a1         1 CLA      0.089200
     57 C14        80.0964   56.8412   40.2942 a3         1 CLA     -0.239100
     58 C15        81.7395   56.8086   42.2752 a2         1 CLA     -0.102200
     59 C16        81.4671   58.2563   42.5577 a2         1 CLA      0.023900
     60 C17        82.2040   58.7850   43.7636 a2         1 CLA     -0.105700
     61 C18        81.9829   60.2407   43.9956 a1         1 CLA      0.206800
     62 C19        80.4667   60.7139   43.8938 a3         1 CLA     -0.280100
     63 C20        82.6312   60.7490   45.2997 a3         1 CLA     -0.280100
     64 NC         73.3772   58.3487   39.4480 nx         1 CLA     -0.309200
     65 MG         74.6849   58.3503   37.7982 mg         1 CLA      0.895000
     66 HMD3       70.4959   54.1427   37.5260 dc         1 CLA      0.064300
     67 HMD2       69.5798   55.3074   36.4257 dc         1 CLA      0.064300
     68 HMD1       70.1085   53.9311   35.7803 dc         1 CLA      0.064300
     69 HMC3       72.9888   59.9944   43.0188 dc         1 CLA      0.052100
     70 HMC2       71.6321   58.9803   43.4842 dc         1 CLA      0.052100
     71 HMC1       73.2449   58.3140   43.6264 dc         1 CLA      0.052100
     72 HMB3       79.2332   61.9097   38.7331 dc         1 CLA      0.063600
     73 HMB2       79.5613   61.5273   40.4087 dc         1 CLA      0.063600
     74 HMB1       79.9963   60.3184   39.1173 dc         1 CLA      0.063600
     75 HMA3       80.0940   57.4414   36.8830 dc         1 CLA      0.058300
     76 HMA2       79.2311   55.9611   36.4158 dc         1 CLA      0.058300
     77 HMA1       80.5354   56.5949   35.3677 dc         1 CLA      0.058300
     78 HED3       76.6537   52.1541   36.2539 dc         1 CLA      0.079300
     79 HED2       76.7622   51.6547   34.5321 dc         1 CLA      0.079300
     80 HED1       77.6488   53.0362   35.0599 dc         1 CLA      0.079300
     81 HBC3       71.0159   54.9592   41.0511 dc         1 CLA      0.016300
     82 HBC2       71.8272   55.5609   42.5737 dc         1 CLA      0.016300
     83 HBC1       70.1049   55.1985   42.7234 dc         1 CLA      0.016300
     84 HBB2       77.2605   61.1995   44.1089 da         1 CLA      0.183000
     85 HBB1       76.7098   59.7240   43.1571 da         1 CLA      0.183000
     86 HBA2       78.5479   57.5134   31.1030 dc         1 CLA      0.029400
     87 HBA1       79.4382   57.8597   32.5854 dc         1 CLA      0.029400
     88 HAC2       70.2915   57.4439   42.5738 dc         1 CLA      0.029300
     89 HAC1       69.5981   57.0374   41.0262 dc         1 CLA      0.029300
     90 HAA2       76.5704   56.9558   32.5481 dc         1 CLA      0.028700
     91 HAA1       77.2967   58.5654   32.9377 dc         1 CLA      0.028700
     92 H203       82.3166   60.1828   46.2124 dc         1 CLA      0.065600
     93 H202       83.7172   60.7454   45.2632 dc         1 CLA      0.065600
     94 H201       82.3830   61.7580   45.5795 dc         1 CLA      0.065600
     95 H193       80.3925   61.6647   44.3416 dc         1 CLA      0.065600
     96 H192       80.1007   60.8412   42.8648 dc         1 CLA      0.065600
     97 H191       79.9495   59.9374   44.4209 dc         1 CLA      0.065600
     98 H172       81.8272   58.2358   44.6195 dc         1 CLA      0.027600
     99 H171       83.2432   58.6178   43.5304 dc         1 CLA      0.027600
    100 H162       81.6799   58.8684   41.6424 dc         1 CLA      0.002900
    101 H161       80.3862   58.3982   42.7917 dc         1 CLA      0.002900
    102 H152       81.2224   56.2732   43.0838 dc         1 CLA      0.029100
    103 H151       82.7448   56.4821   42.4819 dc         1 CLA      0.029100
    104 H143       80.3091   57.7588   39.9259 dc         1 CLA      0.063600
    105 H142       79.5506   56.3425   39.4632 dc         1 CLA      0.063600
    106 H141       79.2345   56.8822   41.0242 dc         1 CLA      0.063600
    107 H122       83.3832   55.4682   40.5590 dc         1 CLA      0.032500
    108 H121       82.9672   57.0608   40.0932 dc         1 CLA      0.032500
    109 H112       81.6710   56.1260   38.0858 dc         1 CLA      0.006600
    110 H111       82.1709   54.5611   38.5052 dc         1 CLA      0.006600
    111 H102       84.6214   55.2618   38.4764 dc         1 CLA      0.024100
    112 H101       84.1676   56.7538   37.9473 dc         1 CLA      0.024100
    113 HHD        70.8405   56.1893   38.7936 da         1 CLA      0.174300
    114 HHC        74.8330   60.0434   42.0088 da         1 CLA      0.136800
    115 HHB        78.9330   59.6490   37.1728 da         1 CLA      0.138300
    116 HBD        74.6962   55.7762   32.9808 dc         1 CLA      0.107700
    117 HAB        77.9151   62.3072   41.8711 da         1 CLA      0.155200
    118 H93        85.1648   57.0994   35.8234 dc         1 CLA      0.069500
    119 H92        85.9850   55.4876   35.9895 dc         1 CLA      0.069500
    120 H91        84.9768   55.8114   34.6450 dc         1 CLA      0.069500
    121 H8         82.9702   55.8882   35.9881 dc         1 CLA      0.029300
    122 H72        82.7068   53.3712   36.6081 dc         1 CLA      0.044400
    123 H71        84.6000   53.2752   36.6846 dc         1 CLA      0.044400
    124 H62        84.7589   53.0198   34.5864 dc         1 CLA      0.015600
    125 H61        83.6035   54.2632   34.1568 dc         1 CLA      0.015600
    126 H52        83.1078   51.4123   34.9684 dc         1 CLA      0.033200
    127 H51        82.8388   51.8928   33.3864 dc         1 CLA      0.033200
    128 H43        80.9129   51.1479   36.3924 dc         1 CLA      0.037000
    129 H42        79.5766   51.4954   35.2016 dc         1 CLA      0.037000
    130 H41        80.8798   50.2636   34.9258 dc         1 CLA      0.037000
    131 H3A        78.9649   58.5896   34.8957 dc         1 CLA      0.041100
    132 H2A        77.7834   55.7920   34.5582 dc         1 CLA      0.083100
    133 H2         80.7973   54.3619   35.1637 da         1 CLA      0.180900
    134 H18        82.5285   60.7105   43.2059 dc         1 CLA     -0.003900
    135 H13        80.9665   55.1234   41.1354 dc         1 CLA      0.019700
    136 H12        79.1798   53.3237   33.0483 dc         1 CLA      0.120400
    137 H11        80.7249   53.5223   32.3492 dc         1 CLA      0.120400
    138 C1         68.4647   59.9711   49.0480 Z1         2 LUT      0.509236
    139 C2         67.1324   59.5164   49.5820 Z2         2 LUT     -0.434695
    140 C3         66.1044   60.5946   50.0128 Z3         2 LUT      0.437453
    141 O3         66.2579   60.7751   51.4803 S1         2 LUT     -0.547129
    142 C4         66.3304   61.8695   49.3839 Z4         2 LUT     -0.468603
    143 C5         66.9872   61.7862   48.0388 Z5         2 LUT      0.279246
    144 C6         68.0692   60.9495   47.8705 Z6         2 LUT     -0.305473
    145 C7         68.4373   60.4645   46.4763 Z7         2 LUT      0.069402
    146 C8         69.0187   61.1849   45.5061 Z8         2 LUT     -0.191631
    147 C9         69.3288   60.8851   44.1209 Z9         2 LUT      0.196698
    148 C10        70.1627   61.7759   43.4490 Y1         2 LUT     -0.208611
    149 C11        70.6743   61.8179   42.0879 Y2         2 LUT      0.030784
    150 C12        71.9146   62.4727   41.8906 Y3         2 LUT     -0.220316
    151 C13        72.6515   62.3567   40.7230 Y4         2 LUT      0.215937
    152 C14        73.8929   63.0392   40.7177 Y5         2 LUT     -0.185793
    153 C15        74.9525   63.1225   39.7847 Y6         2 LUT     -0.057835
    154 C16        69.2130   58.6810   48.4353 Y7         2 LUT     -0.405615
    155 C17        69.3852   60.6254   50.1348 Y7         2 LUT     -0.405615
    156 C18        66.2125   62.2695   46.8569 Y9         2 LUT     -0.369639
    157 C19        68.7773   59.6162   43.5771 W1         2 LUT     -0.333362
    158 C20        72.3283   61.6031   39.4546 W2         2 LUT     -0.323439
    159 C21        86.6442   64.2754   33.7816 Z1         2 LUT      0.406104
    160 C22        87.2447   63.7062   32.4282 Z2         2 LUT     -0.404965
    161 C23        87.6197   64.7939   31.4250 Z3         2 LUT      0.391255
    162 O23        88.0758   64.1609   30.2492 S1         2 LUT     -0.528210
    163 C24        86.4763   65.7209   31.2226 W6         2 LUT     -0.258361
    164 C25        85.3811   65.8571   32.0044 Z5         2 LUT      0.133546
    165 C26        85.2762   64.9970   33.3473 W8         2 LUT     -0.147008
    166 C27        84.4340   65.7001   34.4567 Z7         2 LUT      0.023843
    167 C28        83.1709   65.4702   34.8882 Z8         2 LUT     -0.216987
    168 C29        82.3808   65.8101   36.0710 Z9         2 LUT      0.206524
    169 C30        81.2860   65.0836   36.4952 Y1         2 LUT     -0.215556
    170 C31        80.4092   65.2548   37.6414 Y2         2 LUT      0.025142
    171 C32        79.2534   64.6109   37.9017 Y3         2 LUT     -0.212209
    172 C33        78.3204   64.7572   38.9380 Y4         2 LUT      0.240937
    173 C34        77.0882   64.1392   38.7767 Y5         2 LUT     -0.218862
    174 C35        76.0234   63.9803   39.7719 Y6         2 LUT     -0.023547
    175 C36        87.6340   65.0998   34.5547 Y7         2 LUT     -0.393485
    176 C37        86.3696   63.0314   34.6307 Y7         2 LUT     -0.393485
    177 C38        84.3118   66.8774   31.5535 Y9         2 LUT     -0.387526
    178 C39        82.7805   66.9266   36.9559 W1         2 LUT     -0.322618
    179 C40        78.7079   65.3834   40.2794 W2         2 LUT     -0.358472
    180 H403       79.8003   65.3179   40.4606 R7         2 LUT      0.097720
    181 H402       78.3192   66.4155   40.3968 R7         2 LUT      0.097720
    182 H401       78.3966   64.7559   41.0823 R7         2 LUT      0.097720
    183 H393       83.4816   67.6886   36.5533 R4         2 LUT      0.082505
    184 H392       81.8829   67.4929   37.3030 R4         2 LUT      0.082505
    185 H391       83.2349   66.6164   37.9147 R4         2 LUT      0.082505
    186 H383       84.6827   67.5218   30.6866 R1         2 LUT      0.104030
    187 H382       83.4459   66.2990   31.1681 R1         2 LUT      0.104030
    188 H381       84.0252   67.5338   32.4003 R1         2 LUT      0.104030
    189 H373       85.6251   62.3918   34.2897 T4         2 LUT      0.089537
    190 H372       87.2708   62.4811   34.9462 T4         2 LUT      0.089537
    191 H371       85.9966   63.5212   35.5439 T4         2 LUT      0.089537
    192 H363       88.4766   64.5258   34.9040 T4         2 LUT      0.089537
    193 H362       88.0498   65.9951   33.9624 T4         2 LUT      0.089537
    194 H361       87.1389   65.5132   35.4356 T4         2 LUT      0.089537
    195 H222       88.1110   63.0512   32.6149 U2         2 LUT      0.127376
    196 H221       86.4044   63.1035   31.9481 U2         2 LUT      0.127376
    197 H203       71.3000   61.1021   39.5265 R7         2 LUT      0.087068
    198 H202       72.2114   62.1981   38.5786 R7         2 LUT      0.087068
    199 H201       73.0470   60.9057   39.1128 R7         2 LUT      0.087068
    200 H193       69.1582   59.4900   42.5580 R4         2 LUT      0.089716
    201 H192       69.0157   58.7184   44.1332 R4         2 LUT      0.089716
    202 H191       67.7001   59.5262   43.5010 R4         2 LUT      0.089716
    203 H183       66.5592   63.2146   46.4370 R1         2 LUT      0.094572
    204 H182       66.0259   61.5324   46.0379 R1         2 LUT      0.094572
    205 H181       65.1771   62.5364   47.2167 R1         2 LUT      0.094572
    206 H173       68.7531   60.8572   51.0104 T4         2 LUT      0.093752
    207 H172       70.2674   60.0399   50.4383 T4         2 LUT      0.093752
    208 H171       69.8160   61.5775   49.7712 T4         2 LUT      0.093752
    209 H163       70.2484   58.8404   48.0859 T4         2 LUT      0.093752
    210 H162       69.5051   58.0727   49.2591 T4         2 LUT      0.093752
    211 H161       68.7325   58.0256   47.7828 T4         2 LUT      0.093752
    212 HO3        65.3819   60.7043   51.8840 Q1         2 LUT      0.300121
    213 H8         69.4672   62.1533   45.8697 U7         2 LUT      0.080784
    214 H7         68.0084   59.4846   46.1675 U6         2 LUT      0.042190
    215 H42        65.3133   62.3800   49.4369 U5         2 LUT      0.145166
    216 H41        66.8848   62.5230   50.0151 U5         2 LUT      0.145166
    217 H35        76.0794   64.6223   40.6531 T3         2 LUT      0.077919
    218 H34        76.8380   63.4457   37.9353 T2         2 LUT      0.073626
    219 H32        78.9587   63.8938   37.0876 T1         2 LUT      0.092510
    220 H31        80.7497   65.9111   38.5105 U9         2 LUT      0.070048
    221 H30        80.9784   64.2877   35.9699 U8         2 LUT      0.085442
    222 H3         65.1067   60.2082   49.8168 U3         2 LUT     -0.031596
    223 H28        82.6779   64.6407   34.3571 U7         2 LUT      0.084728
    224 H27        85.0434   66.3132   35.1094 U6         2 LUT      0.087291
    225 H26        84.5644   64.1713   33.0155 Q6         2 LUT      0.075325
    226 H24        86.4788   66.3887   30.3707 Q5         2 LUT      0.094482
    227 H23        88.4379   65.3659   31.8775 U3         2 LUT     -0.024869
    228 H22        66.5672   59.0137   48.8560 U2         2 LUT      0.127376
    229 H21        67.3361   58.8237   50.4353 U2         2 LUT      0.127376
    230 H15        74.9436   62.4869   38.8685 T3         2 LUT      0.093200
    231 H14        74.1721   63.6530   41.5572 T2         2 LUT      0.068865
    232 H12        72.3722   63.0873   42.6858 T1         2 LUT      0.095507
    233 H11        70.2000   61.2006   41.3404 U9         2 LUT      0.068930
    234 H10        70.3888   62.6215   44.0611 U8         2 LUT      0.083911
    235 H1         87.3875   63.8064   29.6723 Q1         2 LUT      0.297311
@<TRIPOS>BOND
    1     6     1 1
    2     7     2 1
    3     8     3 1
    4     9     4 1
    5    11     4 1
    6    12     6 1
    7    13     9 1
    8    16     9 1
    9    25     5 1
   10    25    16 1
   11    26    10 1
   12    26    17 1
   13    27    18 1
   14    28    14 1
   15    28    19 1
   16    29    12 1
   17    30    13 1
   18    31    24 1
   19    32     1 1
   20    32    25 1
   21    33    21 1
   22    33    26 1
   23    34    22 1
   24    34    27 1
   25    35    23 1
   26    35    28 1
   27    36    12 1
   28    36    24 1
   29    37    13 1
   30    37    15 1
   31    38    31 1
   32    39    20 1
   33    39    32 1
   34    40     2 1
   35    40    33 1
   36    41     3 1
   37    41    34 1
   38    42     4 1
   39    42    35 1
   40    43    38 1
   41    44     5 1
   42    44    17 1
   43    44    39 1
   44    45    10 1
   45    45    18 1
   46    45    40 1
   47    46    19 1
   48    46    41 1
   49    47    14 1
   50    47    16 1
   51    47    42 1
   52    48    38 1
   53    49    48 1
   54    50    49 1
   55    51    50 1
   56    52    51 1
   57    53    51 1
   58    54    53 1
   59    55    54 1
   60    56    55 1
   61    57    56 1
   62    58    56 1
   63    59    58 1
   64    60    59 1
   65    61    60 1
   66    62    61 1
   67    63    61 1
   68    64    27 1
   69    64    46 1
   70    65     5 1
   71    65    10 1
   72    65    64 1
   73    65    14 1
   74    66    23 1
   75    67    23 1
   76    68    23 1
   77    69    22 1
   78    70    22 1
   79    71    22 1
   80    72    21 1
   81    73    21 1
   82    74    21 1
   83    75    20 1
   84    76    20 1
   85    77    20 1
   86    78    15 1
   87    79    15 1
   88    80    15 1
   89    81     8 1
   90    82     8 1
   91    83     8 1
   92    84     7 1
   93    85     7 1
   94    86     6 1
   95    87     6 1
   96    88     3 1
   97    89     3 1
   98    90     1 1
   99    91     1 1
  100    92    63 1
  101    93    63 1
  102    94    63 1
  103    95    62 1
  104    96    62 1
  105    97    62 1
  106    98    60 1
  107    99    60 1
  108   100    59 1
  109   101    59 1
  110   102    58 1
  111   103    58 1
  112   104    57 1
  113   105    57 1
  114   106    57 1
  115   107    55 1
  116   108    55 1
  117   109    54 1
  118   110    54 1
  119   111    53 1
  120   112    53 1
  121   113    19 1
  122   114    18 1
  123   115    17 1
  124   116     9 1
  125   117     2 1
  126   118    52 1
  127   119    52 1
  128   120    52 1
  129   121    51 1
  130   122    50 1
  131   123    50 1
  132   124    49 1
  133   125    49 1
  134   126    48 1
  135   127    48 1
  136   128    43 1
  137   129    43 1
  138   130    43 1
  139   131    39 1
  140   132    32 1
  141   133    31 1
  142   134    61 1
  143   135    56 1
  144   136    24 1
  145   137    24 1
  146   139   138 1
  147   140   139 1
  148   141   140 1
  149   142   140 1
  150   143   142 1
  151   144   138 1
  152   144   143 1
  153   145   144 1
  154   146   145 1
  155   147   146 1
  156   148   147 1
  157   149   148 1
  158   150   149 1
  159   151   150 1
  160   152   151 1
  161   153   152 1
  162   154   138 1
  163   155   138 1
  164   156   143 1
  165   157   147 1
  166   158   151 1
  167   160   159 1
  168   161   160 1
  169   162   161 1
  170   163   161 1
  171   164   163 1
  172   165   159 1
  173   165   164 1
  174   166   165 1
  175   167   166 1
  176   168   167 1
  177   169   168 1
  178   170   169 1
  179   171   170 1
  180   172   171 1
  181   173   172 1
  182   174   153 1
  183   174   173 1
  184   175   159 1
  185   176   159 1
  186   177   164 1
  187   178   168 1
  188   179   172 1
  189   180   179 1
  190   181   179 1
  191   182   179 1
  192   183   178 1
  193   184   178 1
  194   185   178 1
  195   186   177 1
  196   187   177 1
  197   188   177 1
  198   189   176 1
  199   190   176 1
  200   191   176 1
  201   192   175 1
  202   193   175 1
  203   194   175 1
  204   195   160 1
  205   196   160 1
  206   197   158 1
  207   198   158 1
  208   199   158 1
  209   200   157 1
  210   201   157 1
  211   202   157 1
  212   203   156 1
  213   204   156 1
  214   205   156 1
  215   206   155 1
  216   207   155 1
  217   208   155 1
  218   209   154 1
  219   210   154 1
  220   211   154 1
  221   212   141 1
  222   213   146 1
  223   214   145 1
  224   215   142 1
  225   216   142 1
  226   217   174 1
  227   218   173 1
  228   219   171 1
  229   220   170 1
  230   221   169 1
  231   222   140 1
  232   223   167 1
  233   224   166 1
  234   225   165 1
  235   226   163 1
  236   227   161 1
  237   228   139 1
  238   229   139 1
  239   230   153 1
  240   231   152 1
  241   232   150 1
  242   233   149 1
  243   234   148 1
  244   235   162 1
  245   65    153 1
  246   65    174 1
@<TRIPOS>SUBSTRUCTURE
      1 CLA               1 ****               0 ****  **** 
      2 LUT             138 ****               0 ****  **** 
