@<TRIPOS>MOLECULE
Cpptraj generated mol2 file.
  235   246     2     0     0
SMALL
USER_CHARGES


@<TRIPOS>ATOM
      1 CAA        78.4169   58.7939   33.6254 a2         1 CLA     -0.055900
      2 CAB        78.9437   62.6143   42.6598 c8         1 CLA     -0.148500
      3 CAC        71.7505   58.7346   42.5699 a2         1 CLA     -0.012600
      4 CAD        74.0873   56.3416   35.0303 ck         1 CLA      0.398800
      5 NA         77.4224   59.1745   37.1658 ns         1 CLA     -0.225500
      6 CBA        79.7966   58.6783   32.9058 a2         1 CLA     -0.135000
      7 CBB        78.7890   62.0290   43.8803 c0         1 CLA     -0.395200
      8 CBC        71.7294   57.2316   42.7532 a3         1 CLA     -0.037700
      9 CBD        75.5690   56.8132   34.6459 a1         1 CLA     -0.053900
     10 NB         77.4506   60.8341   39.7174 nm         1 CLA     -0.295700
     11 OBD        73.4115   55.5022   34.4533 o2         1 CLA     -0.494600
     12 CGA        80.3173   57.2843   32.4063 c4         1 CLA      0.827000
     13 CGD        76.5196   55.6371   34.2587 c4         1 CLA      0.655300
     14 ND         74.6354   58.4007   37.8448 nm         1 CLA     -0.291600
     15 CED        77.6091   53.5895   34.8356 a3         1 CLA      0.005400
     16 CHA        75.9514   57.7699   35.7801 cs         1 CLA     -0.123800
     17 CHB        79.3566   60.3936   38.1046 aa         1 CLA     -0.291900
     18 CHC        76.2055   61.2186   41.8431 aa         1 CLA     -0.090400
     19 CHD        72.9477   58.3215   39.5712 aa         1 CLA     -0.052000
     20 CMA        80.6765   57.9332   36.3888 a3         1 CLA     -0.230700
     21 CMB        80.8648   62.1971   40.1382 a3         1 CLA     -0.180800
     22 CMC        74.1327   60.4927   43.9829 a3         1 CLA     -0.134000
     23 CMD        71.3783   56.6995   37.2336 a3         1 CLA     -0.141100
     24 C1         81.1236   55.1980   33.0982 a2         1 CLA      0.023000
     25 C1A        77.1497   58.4097   35.9677 ac         1 CLA     -0.015100
     26 C1B        78.7711   60.9718   39.3136 cr         1 CLA      0.054700
     27 C1C        75.0549   60.4225   41.6479 cn         1 CLA     -0.005600
     28 C1D        73.3741   58.0215   38.2461 ap         1 CLA     -0.047300
     29 O1A        80.0367   56.8283   31.2949 o2         1 CLA     -0.610800
     30 O1D        77.2701   55.6969   33.3111 o2         1 CLA     -0.558200
     31 C2         81.3989   54.6037   34.4183 c8         1 CLA     -0.325100
     32 C2A        78.4576   58.3167   35.1171 a1         1 CLA      0.098600
     33 C2B        79.4782   61.7944   40.2604 cb         1 CLA      0.088500
     34 C2C        74.0301   60.0549   42.6215 cb         1 CLA      0.053700
     35 C2D        72.7691   57.2042   37.1920 cb         1 CLA      0.058900
     36 O2A        80.8410   56.5514   33.4468 o1         1 CLA     -0.437200
     37 O2D        76.5416   54.6504   35.1426 o1         1 CLA     -0.357600
     38 C3         81.9199   53.4430   34.7429 c5         1 CLA      0.031200
     39 C3A        79.5467   58.9450   36.0377 a1         1 CLA      0.166800
     40 C3B        78.6596   62.0260   41.3355 cb         1 CLA      0.035000
     41 C3C        73.1167   59.2126   41.9575 cb         1 CLA     -0.089900
     42 C3D        73.7463   57.1140   36.2123 cb         1 CLA     -0.035900
     43 C4         81.0705   52.1912   35.0388 a3         1 CLA     -0.053300
     44 C4A        78.7275   59.5547   37.1601 ac         1 CLA      0.001800
     45 C4B        77.3548   61.3730   41.0028 cn         1 CLA     -0.020900
     46 C4C        73.5946   59.0922   40.5893 cr         1 CLA     -0.044400
     47 C4D        74.8769   57.8448   36.6651 c6         1 CLA     -0.046000
     48 C5         83.3511   53.2031   34.7868 a2         1 CLA     -0.070400
     49 C6         84.1905   54.4092   35.3494 a2         1 CLA      0.043900
     50 C7         84.2723   54.5778   36.9188 a2         1 CLA     -0.150000
     51 C8         84.8048   55.9609   37.3632 a1         1 CLA      0.064200
     52 C9         86.2679   56.1262   36.7884 a3         1 CLA     -0.259300
     53 C10        84.5352   56.1304   38.9031 a2         1 CLA     -0.071900
     54 C11        83.0800   56.3367   39.3845 a2         1 CLA      0.014500
     55 C12        82.9980   57.0783   40.7756 a2         1 CLA     -0.112100
     56 C13        81.6071   57.4088   41.3567 a1         1 CLA      0.089200
     57 C14        80.8319   58.3564   40.4043 a3         1 CLA     -0.239100
     58 C15        81.7790   58.0604   42.7943 a2         1 CLA     -0.102200
     59 C16        82.1460   59.5558   42.8874 a2         1 CLA      0.023900
     60 C17        81.9659   60.0875   44.3111 a2         1 CLA     -0.105700
     61 C18        82.8323   61.3708   44.5898 a1         1 CLA      0.206800
     62 C19        82.5646   62.4915   43.5526 a3         1 CLA     -0.280100
     63 C20        82.6998   61.8224   46.0694 a3         1 CLA     -0.280100
     64 NC         74.7688   59.7558   40.4878 nx         1 CLA     -0.309200
     65 MG         75.9999   59.6652   38.6915 mg         1 CLA      0.895000
     66 HMD3       71.0472   56.5964   38.2311 dc         1 CLA      0.064300
     67 HMD2       70.7819   57.4809   36.7158 dc         1 CLA      0.064300
     68 HMD1       71.2223   55.8040   36.6885 dc         1 CLA      0.064300
     69 HMC3       74.0850   61.6252   43.9646 dc         1 CLA      0.052100
     70 HMC2       73.2926   60.0843   44.6222 dc         1 CLA      0.052100
     71 HMC1       75.0404   60.2450   44.4606 dc         1 CLA      0.052100
     72 HMB3       80.9768   62.7094   39.1638 dc         1 CLA      0.063600
     73 HMB2       81.0801   62.9735   40.7941 dc         1 CLA      0.063600
     74 HMB1       81.5936   61.4162   40.2949 dc         1 CLA      0.063600
     75 HMA3       80.0780   57.0899   36.7492 dc         1 CLA      0.058300
     76 HMA2       81.3120   57.7115   35.5174 dc         1 CLA      0.058300
     77 HMA1       81.3716   58.3327   37.0990 dc         1 CLA      0.058300
     78 HED3       78.5253   53.9275   34.3499 dc         1 CLA      0.079300
     79 HED2       77.8234   52.9491   35.6191 dc         1 CLA      0.079300
     80 HED1       77.2721   52.9693   34.0006 dc         1 CLA      0.079300
     81 HBC3       70.7516   57.0582   43.0053 dc         1 CLA      0.016300
     82 HBC2       71.9925   56.5894   41.9173 dc         1 CLA      0.016300
     83 HBC1       72.3024   56.9178   43.5351 dc         1 CLA      0.016300
     84 HBB2       78.8660   62.6005   44.7859 da         1 CLA      0.183000
     85 HBB1       78.5906   60.9804   44.0270 da         1 CLA      0.183000
     86 HBA2       79.6620   59.3026   32.0376 dc         1 CLA      0.029400
     87 HBA1       80.5151   59.1774   33.5245 dc         1 CLA      0.029400
     88 HAC2       71.6498   59.1094   43.5539 dc         1 CLA      0.029300
     89 HAC1       70.9784   58.9923   41.8678 dc         1 CLA      0.029300
     90 HAA2       77.6139   58.3115   33.0591 dc         1 CLA      0.028700
     91 HAA1       78.1897   59.8231   33.6977 dc         1 CLA      0.028700
     92 H203       82.8773   60.9601   46.7071 dc         1 CLA      0.065600
     93 H202       83.4494   62.6069   46.1860 dc         1 CLA      0.065600
     94 H201       81.6829   62.2410   46.1980 dc         1 CLA      0.065600
     95 H193       81.5039   62.5449   43.5825 dc         1 CLA      0.065600
     96 H192       83.0542   63.3902   43.8686 dc         1 CLA      0.065600
     97 H191       82.7609   62.1895   42.5794 dc         1 CLA      0.065600
     98 H172       80.9257   60.2512   44.5578 dc         1 CLA      0.027600
     99 H171       82.1687   59.2360   45.0628 dc         1 CLA      0.027600
    100 H162       83.1110   59.7009   42.5365 dc         1 CLA      0.002900
    101 H161       81.5100   60.2347   42.2214 dc         1 CLA      0.002900
    102 H152       80.8113   58.0193   43.2267 dc         1 CLA      0.029100
    103 H151       82.4737   57.5387   43.4315 dc         1 CLA      0.029100
    104 H143       81.4418   59.2842   40.0847 dc         1 CLA      0.063600
    105 H142       80.4227   57.8275   39.5856 dc         1 CLA      0.063600
    106 H141       79.9204   58.7347   40.9195 dc         1 CLA      0.063600
    107 H122       83.6633   56.6385   41.4906 dc         1 CLA      0.032500
    108 H121       83.3991   58.0492   40.6664 dc         1 CLA      0.032500
    109 H112       82.6050   57.0124   38.6645 dc         1 CLA      0.006600
    110 H111       82.5010   55.3811   39.3963 dc         1 CLA      0.006600
    111 H102       84.9447   55.3893   39.6081 dc         1 CLA      0.024100
    112 H101       85.0477   57.0878   39.1995 dc         1 CLA      0.024100
    113 HHD        71.9532   57.9845   39.8087 da         1 CLA      0.174300
    114 HHC        76.3405   61.7293   42.7712 da         1 CLA      0.136800
    115 HHB        80.3952   60.6336   37.9689 da         1 CLA      0.138300
    116 HBD        75.4678   57.3538   33.7100 dc         1 CLA      0.107700
    117 HAB        79.3141   63.6112   42.7032 da         1 CLA      0.155200
    118 H93        86.8310   55.2577   37.1494 dc         1 CLA      0.069500
    119 H92        86.3939   56.0089   35.7087 dc         1 CLA      0.069500
    120 H91        86.7473   56.9822   37.1528 dc         1 CLA      0.069500
    121 H8         84.3494   56.8270   36.7966 dc         1 CLA      0.029300
    122 H72        83.2409   54.5110   37.2785 dc         1 CLA      0.044400
    123 H71        84.8932   53.8441   37.4407 dc         1 CLA      0.044400
    124 H62        85.2083   54.1856   35.0513 dc         1 CLA      0.015600
    125 H61        83.8776   55.2960   34.8927 dc         1 CLA      0.015600
    126 H52        83.5487   52.1984   35.2646 dc         1 CLA      0.033200
    127 H51        83.6124   53.0960   33.6737 dc         1 CLA      0.033200
    128 H43        81.3626   51.2624   34.6364 dc         1 CLA      0.037000
    129 H42        81.1235   51.9817   36.0736 dc         1 CLA      0.037000
    130 H41        80.0929   52.4663   34.7447 dc         1 CLA      0.037000
    131 H3A        80.0502   59.7447   35.5123 dc         1 CLA      0.041100
    132 H2A        78.6855   57.2402   35.0515 dc         1 CLA      0.083100
    133 H2         81.2750   55.1965   35.2421 da         1 CLA      0.180900
    134 H18        83.8140   61.0482   44.4679 dc         1 CLA     -0.003900
    135 H13        81.0273   56.4872   41.4776 dc         1 CLA      0.019700
    136 H12        80.2797   54.7120   32.5833 dc         1 CLA      0.120400
    137 H11        82.0043   55.2253   32.4243 dc         1 CLA      0.120400
    138 C1         67.9783   61.9014   49.8022 Z1         2 LUT      0.509236
    139 C2         66.6374   61.7345   50.4622 Z2         2 LUT     -0.434695
    140 C3         65.7667   62.9636   50.7121 Z3         2 LUT      0.437453
    141 O3         65.9743   63.5365   51.9997 S1         2 LUT     -0.547129
    142 C4         66.0457   64.0351   49.6894 Z4         2 LUT     -0.468603
    143 C5         66.8181   63.7027   48.4144 Z5         2 LUT      0.279246
    144 C6         67.7505   62.7111   48.4614 Z6         2 LUT     -0.305473
    145 C7         68.4240   62.2581   47.2045 Z7         2 LUT      0.069402
    146 C8         69.2806   62.9938   46.4531 Z8         2 LUT     -0.191631
    147 C9         69.9438   62.7214   45.1297 Z9         2 LUT      0.196698
    148 C10        70.8775   63.6508   44.6418 Y1         2 LUT     -0.208611
    149 C11        71.6633   63.5087   43.4955 Y2         2 LUT      0.030784
    150 C12        72.7264   64.3082   43.2417 Y3         2 LUT     -0.220316
    151 C13        73.5953   63.9964   42.1294 Y4         2 LUT      0.215937
    152 C14        74.7717   64.7013   42.1239 Y5         2 LUT     -0.185793
    153 C15        75.9133   64.7760   41.2157 Y6         2 LUT     -0.057835
    154 C16        68.6389   60.4621   49.7687 Y7         2 LUT     -0.405615
    155 C17        68.8127   62.9582   50.6206 Y7         2 LUT     -0.405615
    156 C18        66.4291   64.6453   47.3014 Y9         2 LUT     -0.369639
    157 C19        69.5652   61.4772   44.4638 W1         2 LUT     -0.333362
    158 C20        73.2211   63.2661   40.8945 W2         2 LUT     -0.323439
    159 C21        87.3604   65.0141   34.9983 Z1         2 LUT      0.406104
    160 C22        88.2091   64.6339   33.7137 Z2         2 LUT     -0.404965
    161 C23        88.6280   65.8179   32.8955 Z3         2 LUT      0.391255
    162 O23        89.4726   65.4158   31.7758 S1         2 LUT     -0.528210
    163 C24        87.4052   66.6440   32.6039 W6         2 LUT     -0.258361
    164 C25        86.2394   66.6715   33.3333 Z5         2 LUT      0.133546
    165 C26        86.0358   65.8226   34.5798 W8         2 LUT     -0.147008
    166 C27        85.4118   66.5087   35.7793 Z7         2 LUT      0.023843
    167 C28        84.4621   65.8982   36.4685 Z8         2 LUT     -0.216987
    168 C29        83.8033   66.2764   37.7142 Z9         2 LUT      0.206524
    169 C30        82.6262   65.6821   38.0890 Y1         2 LUT     -0.215556
    170 C31        81.7199   66.0478   39.1680 Y2         2 LUT      0.025142
    171 C32        80.4704   65.5344   39.4172 Y3         2 LUT     -0.212209
    172 C33        79.5588   65.9021   40.5068 Y4         2 LUT      0.240937
    173 C34        78.3091   65.2626   40.5588 Y5         2 LUT     -0.218862
    174 C35        77.1858   65.2700   41.4439 Y6         2 LUT     -0.023547
    175 C36        88.2095   65.9906   35.9164 Y7         2 LUT     -0.393485
    176 C37        87.2203   63.7410   35.8508 Y7         2 LUT     -0.393485
    177 C38        85.2774   67.8369   33.0273 Y9         2 LUT     -0.387526
    178 C39        84.3424   67.5570   38.2954 W1         2 LUT     -0.322618
    179 C40        79.9334   66.8443   41.5815 W2         2 LUT     -0.358472
    180 H403       79.8056   66.4015   42.6233 R7         2 LUT      0.097720
    181 H402       81.0121   67.0085   41.6026 R7         2 LUT      0.097720
    182 H401       79.4396   67.8393   41.4382 R7         2 LUT      0.097720
    183 H393       83.7563   68.0304   39.1248 R4         2 LUT      0.082505
    184 H392       85.3837   67.3269   38.5473 R4         2 LUT      0.082505
    185 H391       84.3186   68.3664   37.5504 R4         2 LUT      0.082505
    186 H383       84.3930   67.4523   32.5207 R1         2 LUT      0.104030
    187 H382       84.9774   68.4735   33.8523 R1         2 LUT      0.104030
    188 H381       85.8484   68.6378   32.3536 R1         2 LUT      0.104030
    189 H373       86.6944   63.9895   36.7494 T4         2 LUT      0.089537
    190 H372       86.7342   62.9160   35.3131 T4         2 LUT      0.089537
    191 H371       88.1668   63.3989   36.1995 T4         2 LUT      0.089537
    192 H363       87.7598   66.1627   36.8961 T4         2 LUT      0.089537
    193 H362       89.2521   65.6456   36.0290 T4         2 LUT      0.089537
    194 H361       88.1840   66.9917   35.4410 T4         2 LUT      0.089537
    195 H222       89.1335   64.1497   33.9744 U2         2 LUT      0.127376
    196 H221       87.5971   63.8877   33.1712 U2         2 LUT      0.127376
    197 H203       73.7382   63.6115   40.0408 R7         2 LUT      0.087068
    198 H202       73.5233   62.2778   40.8932 R7         2 LUT      0.087068
    199 H201       72.1533   63.1635   40.7024 R7         2 LUT      0.087068
    200 H193       70.4077   60.7833   44.5162 R4         2 LUT      0.089716
    201 H192       68.7543   60.8410   44.8999 R4         2 LUT      0.089716
    202 H191       69.3771   61.6531   43.3698 R4         2 LUT      0.089716
    203 H183       66.9226   65.6244   47.3551 R1         2 LUT      0.094572
    204 H182       66.5288   64.2138   46.2465 R1         2 LUT      0.094572
    205 H181       65.3286   64.7902   47.3956 R1         2 LUT      0.094572
    206 H173       68.5178   64.0306   50.5694 T4         2 LUT      0.093752
    207 H172       68.8380   62.6458   51.6693 T4         2 LUT      0.093752
    208 H171       69.8658   62.9711   50.3436 T4         2 LUT      0.093752
    209 H163       69.6085   60.5452   49.2287 T4         2 LUT      0.093752
    210 H162       68.7443   60.0755   50.7986 T4         2 LUT      0.093752
    211 H161       68.0924   59.7897   49.1703 T4         2 LUT      0.093752
    212 HO3        65.8494   62.9708   52.7716 Q1         2 LUT      0.300121
    213 H8         69.7830   63.8948   46.8632 U7         2 LUT      0.080784
    214 H7         68.2503   61.2531   46.8230 U6         2 LUT      0.042190
    215 H42        64.9778   64.1930   49.3732 U5         2 LUT      0.145166
    216 H41        66.3876   65.0033   50.0681 U5         2 LUT      0.145166
    217 H35        77.4970   65.8409   42.3321 T3         2 LUT      0.077919
    218 H34        78.0738   64.6351   39.6560 T2         2 LUT      0.073626
    219 H32        80.1464   64.7337   38.7839 T1         2 LUT      0.092510
    220 H31        82.0692   66.8150   39.8629 U9         2 LUT      0.070048
    221 H30        82.3656   64.7953   37.5591 U8         2 LUT      0.085442
    222 H3         64.6494   62.7965   50.5746 U3         2 LUT     -0.031596
    223 H28        84.1360   64.8926   36.2287 U7         2 LUT      0.084728
    224 H27        85.6593   67.5043   35.9955 U6         2 LUT      0.087291
    225 H26        85.3182   65.1005   34.1868 Q6         2 LUT      0.075325
    226 H24        87.5910   67.4613   31.9152 Q5         2 LUT      0.094482
    227 H23        89.2827   66.3231   33.5728 U3         2 LUT     -0.024869
    228 H22        66.1499   60.9963   49.8333 U2         2 LUT      0.127376
    229 H21        66.7041   61.2089   51.3961 U2         2 LUT      0.127376
    230 H15        75.8170   64.3327   40.3001 T3         2 LUT      0.093200
    231 H14        74.8556   65.3633   42.9418 T2         2 LUT      0.068865
    232 H12        73.0037   65.1022   43.9730 T1         2 LUT      0.095507
    233 H11        71.5191   62.5344   42.9416 U9         2 LUT      0.068930
    234 H10        71.0060   64.5885   45.3233 U8         2 LUT      0.083911
    235 H1         88.9239   65.2298   31.0239 Q1         2 LUT      0.297311
@<TRIPOS>BOND
    1     6     1 1
    2     7     2 1
    3     8     3 1
    4     9     4 1
    5    11     4 1
    6    12     6 1
    7    13     9 1
    8    16     9 1
    9    25     5 1
   10    25    16 1
   11    26    10 1
   12    26    17 1
   13    27    18 1
   14    28    14 1
   15    28    19 1
   16    29    12 1
   17    30    13 1
   18    31    24 1
   19    32     1 1
   20    32    25 1
   21    33    21 1
   22    33    26 1
   23    34    22 1
   24    34    27 1
   25    35    23 1
   26    35    28 1
   27    36    12 1
   28    36    24 1
   29    37    13 1
   30    37    15 1
   31    38    31 1
   32    39    20 1
   33    39    32 1
   34    40     2 1
   35    40    33 1
   36    41     3 1
   37    41    34 1
   38    42     4 1
   39    42    35 1
   40    43    38 1
   41    44     5 1
   42    44    17 1
   43    44    39 1
   44    45    10 1
   45    45    18 1
   46    45    40 1
   47    46    19 1
   48    46    41 1
   49    47    14 1
   50    47    16 1
   51    47    42 1
   52    48    38 1
   53    49    48 1
   54    50    49 1
   55    51    50 1
   56    52    51 1
   57    53    51 1
   58    54    53 1
   59    55    54 1
   60    56    55 1
   61    57    56 1
   62    58    56 1
   63    59    58 1
   64    60    59 1
   65    61    60 1
   66    62    61 1
   67    63    61 1
   68    64    27 1
   69    64    46 1
   70    65     5 1
   71    65    10 1
   72    65    64 1
   73    65    14 1
   74    66    23 1
   75    67    23 1
   76    68    23 1
   77    69    22 1
   78    70    22 1
   79    71    22 1
   80    72    21 1
   81    73    21 1
   82    74    21 1
   83    75    20 1
   84    76    20 1
   85    77    20 1
   86    78    15 1
   87    79    15 1
   88    80    15 1
   89    81     8 1
   90    82     8 1
   91    83     8 1
   92    84     7 1
   93    85     7 1
   94    86     6 1
   95    87     6 1
   96    88     3 1
   97    89     3 1
   98    90     1 1
   99    91     1 1
  100    92    63 1
  101    93    63 1
  102    94    63 1
  103    95    62 1
  104    96    62 1
  105    97    62 1
  106    98    60 1
  107    99    60 1
  108   100    59 1
  109   101    59 1
  110   102    58 1
  111   103    58 1
  112   104    57 1
  113   105    57 1
  114   106    57 1
  115   107    55 1
  116   108    55 1
  117   109    54 1
  118   110    54 1
  119   111    53 1
  120   112    53 1
  121   113    19 1
  122   114    18 1
  123   115    17 1
  124   116     9 1
  125   117     2 1
  126   118    52 1
  127   119    52 1
  128   120    52 1
  129   121    51 1
  130   122    50 1
  131   123    50 1
  132   124    49 1
  133   125    49 1
  134   126    48 1
  135   127    48 1
  136   128    43 1
  137   129    43 1
  138   130    43 1
  139   131    39 1
  140   132    32 1
  141   133    31 1
  142   134    61 1
  143   135    56 1
  144   136    24 1
  145   137    24 1
  146   139   138 1
  147   140   139 1
  148   141   140 1
  149   142   140 1
  150   143   142 1
  151   144   138 1
  152   144   143 1
  153   145   144 1
  154   146   145 1
  155   147   146 1
  156   148   147 1
  157   149   148 1
  158   150   149 1
  159   151   150 1
  160   152   151 1
  161   153   152 1
  162   154   138 1
  163   155   138 1
  164   156   143 1
  165   157   147 1
  166   158   151 1
  167   160   159 1
  168   161   160 1
  169   162   161 1
  170   163   161 1
  171   164   163 1
  172   165   159 1
  173   165   164 1
  174   166   165 1
  175   167   166 1
  176   168   167 1
  177   169   168 1
  178   170   169 1
  179   171   170 1
  180   172   171 1
  181   173   172 1
  182   174   153 1
  183   174   173 1
  184   175   159 1
  185   176   159 1
  186   177   164 1
  187   178   168 1
  188   179   172 1
  189   180   179 1
  190   181   179 1
  191   182   179 1
  192   183   178 1
  193   184   178 1
  194   185   178 1
  195   186   177 1
  196   187   177 1
  197   188   177 1
  198   189   176 1
  199   190   176 1
  200   191   176 1
  201   192   175 1
  202   193   175 1
  203   194   175 1
  204   195   160 1
  205   196   160 1
  206   197   158 1
  207   198   158 1
  208   199   158 1
  209   200   157 1
  210   201   157 1
  211   202   157 1
  212   203   156 1
  213   204   156 1
  214   205   156 1
  215   206   155 1
  216   207   155 1
  217   208   155 1
  218   209   154 1
  219   210   154 1
  220   211   154 1
  221   212   141 1
  222   213   146 1
  223   214   145 1
  224   215   142 1
  225   216   142 1
  226   217   174 1
  227   218   173 1
  228   219   171 1
  229   220   170 1
  230   221   169 1
  231   222   140 1
  232   223   167 1
  233   224   166 1
  234   225   165 1
  235   226   163 1
  236   227   161 1
  237   228   139 1
  238   229   139 1
  239   230   153 1
  240   231   152 1
  241   232   150 1
  242   233   149 1
  243   234   148 1
  244   235   162 1
  245   65    153 1
  246   65    174 1
@<TRIPOS>SUBSTRUCTURE
      1 CLA               1 ****               0 ****  **** 
      2 LUT             138 ****               0 ****  **** 
