@<TRIPOS>MOLECULE
Cpptraj generated mol2 file.
  235   246     2     0     0
SMALL
USER_CHARGES


@<TRIPOS>ATOM
      1 CAA        78.9467   58.2252   34.4706 a2         1 CLA     -0.055900
      2 CAB        79.0960   62.5395   43.0071 c8         1 CLA     -0.148500
      3 CAC        72.1795   58.3766   43.1080 a2         1 CLA     -0.012600
      4 CAD        74.2806   55.8876   35.5197 ck         1 CLA      0.398800
      5 NA         77.8429   58.7523   37.6752 ns         1 CLA     -0.225500
      6 CBA        80.2515   57.9562   33.5915 a2         1 CLA     -0.135000
      7 CBB        80.0269   63.4980   43.2276 c0         1 CLA     -0.395200
      8 CBC        72.1513   56.8509   43.1821 a3         1 CLA     -0.037700
      9 CBD        75.8600   56.1885   35.3475 a1         1 CLA     -0.053900
     10 NB         77.8907   60.5164   40.1196 nm         1 CLA     -0.295700
     11 OBD        73.6626   55.0968   34.8244 o2         1 CLA     -0.494600
     12 CGA        80.5273   56.5069   33.1978 c4         1 CLA      0.827000
     13 CGD        76.6554   54.9195   35.4630 c4         1 CLA      0.655300
     14 ND         74.9812   57.9813   38.3257 nm         1 CLA     -0.291600
     15 CED        77.2646   53.1469   36.9059 a3         1 CLA      0.005400
     16 CHA        76.3573   57.2023   36.4273 cs         1 CLA     -0.123800
     17 CHB        79.7058   60.0560   38.5044 aa         1 CLA     -0.291900
     18 CHC        76.6102   60.8074   42.2279 aa         1 CLA     -0.090400
     19 CHD        73.2405   57.9206   40.0313 aa         1 CLA     -0.052000
     20 CMA        80.8762   57.3015   37.6608 a3         1 CLA     -0.230700
     21 CMB        81.2504   62.1461   40.4011 a3         1 CLA     -0.180800
     22 CMC        74.4038   60.2501   44.4477 a3         1 CLA     -0.134000
     23 CMD        71.6523   56.1702   37.6541 a3         1 CLA     -0.141100
     24 C1         81.3786   54.4169   34.1361 a2         1 CLA      0.023000
     25 C1A        77.6066   57.7931   36.6854 ac         1 CLA     -0.015100
     26 C1B        79.2011   60.6899   39.7227 cr         1 CLA      0.054700
     27 C1C        75.4429   60.1213   41.9598 cn         1 CLA     -0.005600
     28 C1D        73.7058   57.5762   38.7501 ap         1 CLA     -0.047300
     29 O1A        80.2975   56.0400   32.1462 o2         1 CLA     -0.610800
     30 O1D        77.4294   54.4857   34.6264 o2         1 CLA     -0.558200
     31 C2         82.3072   54.0314   35.2062 c8         1 CLA     -0.325100
     32 C2A        78.8910   57.6044   35.8860 a1         1 CLA      0.098600
     33 C2B        79.8993   61.5557   40.6788 cb         1 CLA      0.088500
     34 C2C        74.4229   59.8295   42.9770 cb         1 CLA      0.053700
     35 C2D        73.0989   56.7465   37.7046 cb         1 CLA      0.058900
     36 O2A        81.0146   55.8373   34.3210 o1         1 CLA     -0.437200
     37 O2D        76.3820   54.3486   36.6622 o1         1 CLA     -0.357600
     38 C3         83.3338   53.2423   35.1034 c5         1 CLA      0.031200
     39 C3A        80.0200   58.2881   36.7628 a1         1 CLA      0.166800
     40 C3B        78.9663   61.7345   41.7388 cb         1 CLA      0.035000
     41 C3C        73.4360   58.9657   42.4075 cb         1 CLA     -0.089900
     42 C3D        74.0498   56.5618   36.7600 cb         1 CLA     -0.035900
     43 C4         83.2973   51.7509   35.4329 a3         1 CLA     -0.053300
     44 C4A        79.1349   59.1664   37.5721 ac         1 CLA      0.001800
     45 C4B        77.7897   60.9409   41.4096 cn         1 CLA     -0.020900
     46 C4C        73.8994   58.7377   40.9674 cr         1 CLA     -0.044400
     47 C4D        75.2141   57.3041   37.1854 c6         1 CLA     -0.046000
     48 C5         84.6539   53.8308   34.6583 a2         1 CLA     -0.070400
     49 C6         85.1041   55.1731   35.3587 a2         1 CLA      0.043900
     50 C7         85.4254   54.9957   36.8386 a2         1 CLA     -0.150000
     51 C8         85.4857   56.3904   37.6366 a1         1 CLA      0.064200
     52 C9         86.6914   57.1824   37.0993 a3         1 CLA     -0.259300
     53 C10        85.5196   56.0067   39.1389 a2         1 CLA     -0.071900
     54 C11        85.4632   57.1790   40.1268 a2         1 CLA      0.014500
     55 C12        85.6836   56.6912   41.5982 a2         1 CLA     -0.112100
     56 C13        85.9823   57.7764   42.7265 a1         1 CLA      0.089200
     57 C14        87.3753   58.4887   42.4865 a3         1 CLA     -0.239100
     58 C15        85.7920   57.2574   44.2098 a2         1 CLA     -0.102200
     59 C16        85.9011   58.2543   45.3296 a2         1 CLA      0.023900
     60 C17        85.9496   57.6324   46.7837 a2         1 CLA     -0.105700
     61 C18        85.9740   58.7111   47.9109 a1         1 CLA      0.206800
     62 C19        84.6456   59.4967   48.0374 a3         1 CLA     -0.280100
     63 C20        86.5006   58.1346   49.2614 a3         1 CLA     -0.280100
     64 NC         75.1435   59.4364   40.8207 nx         1 CLA     -0.309200
     65 MG         76.3932   59.3650   39.1357 mg         1 CLA      0.895000
     66 HMD3       70.9059   56.9787   37.6790 dc         1 CLA      0.064300
     67 HMD2       71.5257   55.6674   36.7321 dc         1 CLA      0.064300
     68 HMD1       71.4987   55.4799   38.4519 dc         1 CLA      0.064300
     69 HMC3       74.8635   59.4753   45.1090 dc         1 CLA      0.052100
     70 HMC2       74.9854   61.1295   44.5747 dc         1 CLA      0.052100
     71 HMC1       73.4330   60.4783   44.7085 dc         1 CLA      0.052100
     72 HMB3       81.4589   61.8846   39.4533 dc         1 CLA      0.063600
     73 HMB2       81.2758   63.2542   40.4569 dc         1 CLA      0.063600
     74 HMB1       81.9480   61.8335   41.1419 dc         1 CLA      0.063600
     75 HMA3       81.4804   56.7603   36.8971 dc         1 CLA      0.058300
     76 HMA2       81.5323   57.8626   38.3480 dc         1 CLA      0.058300
     77 HMA1       80.2066   56.6994   38.2061 dc         1 CLA      0.058300
     78 HED3       77.0515   52.5030   37.7512 dc         1 CLA      0.079300
     79 HED2       77.1342   52.4090   36.0798 dc         1 CLA      0.079300
     80 HED1       78.3380   53.3456   36.8308 dc         1 CLA      0.079300
     81 HBC3       73.1892   56.4448   43.2807 dc         1 CLA      0.016300
     82 HBC2       71.5693   56.4698   44.0031 dc         1 CLA      0.016300
     83 HBC1       71.7593   56.5003   42.2189 dc         1 CLA      0.016300
     84 HBB2       80.0024   64.0854   44.1677 da         1 CLA      0.183000
     85 HBB1       80.8456   63.7996   42.5259 da         1 CLA      0.183000
     86 HBA2       80.1424   58.6031   32.7400 dc         1 CLA      0.029400
     87 HBA1       81.0384   58.4319   34.1394 dc         1 CLA      0.029400
     88 HAC2       72.1648   58.6712   44.1681 dc         1 CLA      0.029300
     89 HAC1       71.2565   58.7103   42.6286 dc         1 CLA      0.029300
     90 HAA2       77.9891   57.8335   33.9683 dc         1 CLA      0.028700
     91 HAA1       78.9108   59.3027   34.5727 dc         1 CLA      0.028700
     92 H203       87.4638   57.6237   49.0424 dc         1 CLA      0.065600
     93 H202       86.6982   58.9461   49.9358 dc         1 CLA      0.065600
     94 H201       85.7886   57.3871   49.5996 dc         1 CLA      0.065600
     95 H193       84.7071   60.1827   48.8410 dc         1 CLA      0.065600
     96 H192       84.5729   60.0359   47.1270 dc         1 CLA      0.065600
     97 H191       83.8890   58.7533   48.1254 dc         1 CLA      0.065600
     98 H172       85.1884   56.9069   46.9904 dc         1 CLA      0.027600
     99 H171       86.8798   57.1291   46.8179 dc         1 CLA      0.027600
    100 H162       86.7864   58.8380   45.3393 dc         1 CLA      0.002900
    101 H161       85.0937   58.9593   45.2314 dc         1 CLA      0.002900
    102 H152       84.8600   56.6177   44.3092 dc         1 CLA      0.029100
    103 H151       86.5730   56.4982   44.3139 dc         1 CLA      0.029100
    104 H143       88.3053   57.8703   42.5661 dc         1 CLA      0.063600
    105 H142       87.3364   58.9433   41.4735 dc         1 CLA      0.063600
    106 H141       87.4546   59.3956   43.0970 dc         1 CLA      0.063600
    107 H122       84.6473   56.3744   41.7317 dc         1 CLA      0.032500
    108 H121       86.3479   55.7839   41.7468 dc         1 CLA      0.032500
    109 H112       86.1882   57.8897   39.8307 dc         1 CLA      0.006600
    110 H111       84.4965   57.6839   40.0514 dc         1 CLA      0.006600
    111 H102       84.7457   55.2886   39.4229 dc         1 CLA      0.024100
    112 H101       86.3835   55.4975   39.4726 dc         1 CLA      0.024100
    113 HHD        72.2720   57.5162   40.2878 da         1 CLA      0.174300
    114 HHC        76.6229   61.0867   43.2624 da         1 CLA      0.136800
    115 HHB        80.7355   60.2593   38.2362 da         1 CLA      0.138300
    116 HBD        76.0877   56.6555   34.4048 dc         1 CLA      0.107700
    117 HAB        78.3503   62.4358   43.7888 da         1 CLA      0.155200
    118 H93        86.5743   57.4429   36.0093 dc         1 CLA      0.069500
    119 H92        86.6987   58.1197   37.6922 dc         1 CLA      0.069500
    120 H91        87.5970   56.6005   37.1803 dc         1 CLA      0.069500
    121 H8         84.5511   56.9600   37.4430 dc         1 CLA      0.029300
    122 H72        84.6873   54.4478   37.3400 dc         1 CLA      0.044400
    123 H71        86.4095   54.5127   37.0358 dc         1 CLA      0.044400
    124 H62        85.9632   55.3728   34.7028 dc         1 CLA      0.015600
    125 H61        84.3299   56.0039   35.2676 dc         1 CLA      0.015600
    126 H52        85.4443   53.1085   34.8001 dc         1 CLA      0.033200
    127 H51        84.5223   54.0561   33.5968 dc         1 CLA      0.033200
    128 H43        83.5108   51.1007   34.6133 dc         1 CLA      0.037000
    129 H42        84.0392   51.4861   36.2248 dc         1 CLA      0.037000
    130 H41        82.2044   51.5404   35.6846 dc         1 CLA      0.037000
    131 H3A        80.7345   58.8800   36.2239 dc         1 CLA      0.041100
    132 H2A        79.1968   56.5866   35.8104 dc         1 CLA      0.083100
    133 H2         82.3854   54.7137   36.0825 da         1 CLA      0.180900
    134 H18        86.7629   59.4341   47.6515 dc         1 CLA     -0.003900
    135 H13        85.2407   58.5712   42.5507 dc         1 CLA      0.019700
    136 H12        80.4620   53.7957   34.1749 dc         1 CLA      0.120400
    137 H11        81.8825   54.2748   33.1496 dc         1 CLA      0.120400
    138 C1         70.2092   60.9164   50.0055 Z1         2 LUT      0.509236
    139 C2         68.9451   60.3496   50.7628 Z2         2 LUT     -0.434695
    140 C3         67.9759   61.4039   51.2393 Z3         2 LUT      0.437453
    141 O3         68.1766   61.4952   52.6549 S1         2 LUT     -0.547129
    142 C4         68.1363   62.8062   50.5533 Z4         2 LUT     -0.468603
    143 C5         68.6190   62.7142   49.2061 Z5         2 LUT      0.279246
    144 C6         69.7234   61.9815   48.9643 Z6         2 LUT     -0.305473
    145 C7         70.1110   61.7785   47.5352 Z7         2 LUT      0.069402
    146 C8         70.7411   62.6895   46.7752 Z8         2 LUT     -0.191631
    147 C9         71.0459   62.4547   45.3179 Z9         2 LUT      0.196698
    148 C10        72.0653   63.1861   44.8232 Y1         2 LUT     -0.208611
    149 C11        72.5948   63.1180   43.5289 Y2         2 LUT      0.030784
    150 C12        73.7717   63.8052   43.1959 Y3         2 LUT     -0.220316
    151 C13        74.6543   63.7063   42.0733 Y4         2 LUT      0.215937
    152 C14        75.8372   64.4860   42.1738 Y5         2 LUT     -0.185793
    153 C15        76.9240   64.4393   41.2479 Y6         2 LUT     -0.057835
    154 C16        70.8876   59.6495   49.4196 Y7         2 LUT     -0.405615
    155 C17        71.1585   61.4604   51.0742 Y7         2 LUT     -0.405615
    156 C18        67.8044   63.5017   48.2078 Y9         2 LUT     -0.369639
    157 C19        70.3400   61.2939   44.6638 W1         2 LUT     -0.333362
    158 C20        74.2817   62.8827   40.8062 W2         2 LUT     -0.323439
    159 C21        87.7683   65.6991   34.3613 Z1         2 LUT      0.406104
    160 C22        88.3743   65.1011   33.0730 Z2         2 LUT     -0.404965
    161 C23        88.5211   66.0785   31.9778 Z3         2 LUT      0.391255
    162 O23        89.0604   65.4032   30.8507 S1         2 LUT     -0.528210
    163 C24        87.3229   66.8653   31.7216 W6         2 LUT     -0.258361
    164 C25        86.2891   66.9436   32.6042 Z5         2 LUT      0.133546
    165 C26        86.3252   66.2416   34.0211 W8         2 LUT     -0.147008
    166 C27        85.6358   67.0220   35.1400 Z7         2 LUT      0.023843
    167 C28        84.8438   66.3910   36.0589 Z8         2 LUT     -0.216987
    168 C29        84.3414   66.9740   37.2900 Z9         2 LUT      0.206524
    169 C30        83.1949   66.3730   37.8158 Y1         2 LUT     -0.215556
    170 C31        82.5321   66.5210   39.0812 Y2         2 LUT      0.025142
    171 C32        81.2746   65.9899   39.3444 Y3         2 LUT     -0.212209
    172 C33        80.3944   66.0080   40.5166 Y4         2 LUT      0.240937
    173 C34        79.2199   65.3273   40.4474 Y5         2 LUT     -0.218862
    174 C35        78.0685   65.2365   41.3424 Y6         2 LUT     -0.023547
    175 C36        88.7394   66.8213   34.9543 Y7         2 LUT     -0.393485
    176 C37        87.7855   64.6380   35.5275 Y7         2 LUT     -0.393485
    177 C38        85.0760   67.7343   32.3023 Y9         2 LUT     -0.387526
    178 C39        85.1515   68.0364   38.0255 W1         2 LUT     -0.322618
    179 C40        80.6821   66.8958   41.6635 W2         2 LUT     -0.358472
    180 H403       81.5413   66.4941   42.2511 R7         2 LUT      0.097720
    181 H402       80.7341   67.9266   41.3093 R7         2 LUT      0.097720
    182 H401       79.8653   66.8285   42.3471 R7         2 LUT      0.097720
    183 H393       85.1302   69.0113   37.5255 R4         2 LUT      0.082505
    184 H392       84.8107   68.0812   39.0417 R4         2 LUT      0.082505
    185 H391       86.2343   67.6696   38.1350 R4         2 LUT      0.082505
    186 H383       84.5572   67.3638   31.4350 R1         2 LUT      0.104030
    187 H382       84.3708   67.8102   33.1641 R1         2 LUT      0.104030
    188 H381       85.2291   68.7174   31.9352 R1         2 LUT      0.104030
    189 H373       87.3672   63.6993   35.1285 T4         2 LUT      0.089537
    190 H372       88.8341   64.5181   35.8811 T4         2 LUT      0.089537
    191 H371       87.2263   64.8921   36.4514 T4         2 LUT      0.089537
    192 H363       89.7678   66.4712   35.0083 T4         2 LUT      0.089537
    193 H362       88.7519   67.7923   34.5016 T4         2 LUT      0.089537
    194 H361       88.3962   66.9990   35.9920 T4         2 LUT      0.089537
    195 H222       89.4083   64.7348   33.3532 U2         2 LUT      0.127376
    196 H221       87.8363   64.1940   32.6815 U2         2 LUT      0.127376
    197 H203       73.6758   63.4666   40.1136 R7         2 LUT      0.087068
    198 H202       75.0307   62.3588   40.2533 R7         2 LUT      0.087068
    199 H201       73.6061   62.1572   41.1018 R7         2 LUT      0.087068
    200 H193       69.3069   61.4881   44.7223 R4         2 LUT      0.089716
    201 H192       70.5705   61.1846   43.6635 R4         2 LUT      0.089716
    202 H191       70.5254   60.3436   45.0994 R4         2 LUT      0.089716
    203 H183       67.9316   63.0433   47.1953 R1         2 LUT      0.094572
    204 H182       66.7410   63.4285   48.4076 R1         2 LUT      0.094572
    205 H181       68.1849   64.5585   48.1682 R1         2 LUT      0.094572
    206 H173       70.5806   62.0248   51.8106 T4         2 LUT      0.093752
    207 H172       71.6380   60.6060   51.6292 T4         2 LUT      0.093752
    208 H171       71.9814   62.0910   50.6563 T4         2 LUT      0.093752
    209 H163       71.0838   58.9678   50.2323 T4         2 LUT      0.093752
    210 H162       70.2053   59.0655   48.7785 T4         2 LUT      0.093752
    211 H161       71.8783   59.7133   48.9589 T4         2 LUT      0.093752
    212 HO3        67.4139   61.9808   53.0798 Q1         2 LUT      0.300121
    213 H8         71.1470   63.6462   47.2195 U7         2 LUT      0.080784
    214 H7         69.8117   60.8771   47.0437 U6         2 LUT      0.042190
    215 H42        67.1321   63.3173   50.5179 U5         2 LUT      0.145166
    216 H41        68.8466   63.4377   51.0680 U5         2 LUT      0.145166
    217 H35        78.1327   65.7216   42.3523 T3         2 LUT      0.077919
    218 H34        78.9604   64.8902   39.4632 T2         2 LUT      0.073626
    219 H32        80.8644   65.5455   38.4508 T1         2 LUT      0.092510
    220 H31        83.0526   67.1684   39.7509 U9         2 LUT      0.070048
    221 H30        82.7004   65.7388   37.0941 U8         2 LUT      0.085442
    222 H3         66.9654   60.9724   51.0914 U3         2 LUT     -0.031596
    223 H28        84.4285   65.5134   35.5672 U7         2 LUT      0.084728
    224 H27        86.0087   68.0316   35.3713 U6         2 LUT      0.087291
    225 H26        85.7073   65.3748   33.9677 Q6         2 LUT      0.075325
    226 H24        87.3351   67.3614   30.8037 Q5         2 LUT      0.094482
    227 H23        89.2699   66.8510   32.1952 U3         2 LUT     -0.024869
    228 H22        68.4171   59.8527   49.9140 U2         2 LUT      0.127376
    229 H21        69.1850   59.6197   51.5351 U2         2 LUT      0.127376
    230 H15        76.9505   63.7507   40.4443 T3         2 LUT      0.093200
    231 H14        75.9378   65.1874   43.0230 T2         2 LUT      0.068865
    232 H12        74.0766   64.5880   43.8524 T1         2 LUT      0.095507
    233 H11        72.2658   62.3751   42.8574 U9         2 LUT      0.068930
    234 H10        72.4954   64.0437   45.3872 U8         2 LUT      0.083911
    235 H1         88.7452   65.5982   29.9575 Q1         2 LUT      0.297311
@<TRIPOS>BOND
    1     6     1 1
    2     7     2 1
    3     8     3 1
    4     9     4 1
    5    11     4 1
    6    12     6 1
    7    13     9 1
    8    16     9 1
    9    25     5 1
   10    25    16 1
   11    26    10 1
   12    26    17 1
   13    27    18 1
   14    28    14 1
   15    28    19 1
   16    29    12 1
   17    30    13 1
   18    31    24 1
   19    32     1 1
   20    32    25 1
   21    33    21 1
   22    33    26 1
   23    34    22 1
   24    34    27 1
   25    35    23 1
   26    35    28 1
   27    36    12 1
   28    36    24 1
   29    37    13 1
   30    37    15 1
   31    38    31 1
   32    39    20 1
   33    39    32 1
   34    40     2 1
   35    40    33 1
   36    41     3 1
   37    41    34 1
   38    42     4 1
   39    42    35 1
   40    43    38 1
   41    44     5 1
   42    44    17 1
   43    44    39 1
   44    45    10 1
   45    45    18 1
   46    45    40 1
   47    46    19 1
   48    46    41 1
   49    47    14 1
   50    47    16 1
   51    47    42 1
   52    48    38 1
   53    49    48 1
   54    50    49 1
   55    51    50 1
   56    52    51 1
   57    53    51 1
   58    54    53 1
   59    55    54 1
   60    56    55 1
   61    57    56 1
   62    58    56 1
   63    59    58 1
   64    60    59 1
   65    61    60 1
   66    62    61 1
   67    63    61 1
   68    64    27 1
   69    64    46 1
   70    65     5 1
   71    65    10 1
   72    65    64 1
   73    65    14 1
   74    66    23 1
   75    67    23 1
   76    68    23 1
   77    69    22 1
   78    70    22 1
   79    71    22 1
   80    72    21 1
   81    73    21 1
   82    74    21 1
   83    75    20 1
   84    76    20 1
   85    77    20 1
   86    78    15 1
   87    79    15 1
   88    80    15 1
   89    81     8 1
   90    82     8 1
   91    83     8 1
   92    84     7 1
   93    85     7 1
   94    86     6 1
   95    87     6 1
   96    88     3 1
   97    89     3 1
   98    90     1 1
   99    91     1 1
  100    92    63 1
  101    93    63 1
  102    94    63 1
  103    95    62 1
  104    96    62 1
  105    97    62 1
  106    98    60 1
  107    99    60 1
  108   100    59 1
  109   101    59 1
  110   102    58 1
  111   103    58 1
  112   104    57 1
  113   105    57 1
  114   106    57 1
  115   107    55 1
  116   108    55 1
  117   109    54 1
  118   110    54 1
  119   111    53 1
  120   112    53 1
  121   113    19 1
  122   114    18 1
  123   115    17 1
  124   116     9 1
  125   117     2 1
  126   118    52 1
  127   119    52 1
  128   120    52 1
  129   121    51 1
  130   122    50 1
  131   123    50 1
  132   124    49 1
  133   125    49 1
  134   126    48 1
  135   127    48 1
  136   128    43 1
  137   129    43 1
  138   130    43 1
  139   131    39 1
  140   132    32 1
  141   133    31 1
  142   134    61 1
  143   135    56 1
  144   136    24 1
  145   137    24 1
  146   139   138 1
  147   140   139 1
  148   141   140 1
  149   142   140 1
  150   143   142 1
  151   144   138 1
  152   144   143 1
  153   145   144 1
  154   146   145 1
  155   147   146 1
  156   148   147 1
  157   149   148 1
  158   150   149 1
  159   151   150 1
  160   152   151 1
  161   153   152 1
  162   154   138 1
  163   155   138 1
  164   156   143 1
  165   157   147 1
  166   158   151 1
  167   160   159 1
  168   161   160 1
  169   162   161 1
  170   163   161 1
  171   164   163 1
  172   165   159 1
  173   165   164 1
  174   166   165 1
  175   167   166 1
  176   168   167 1
  177   169   168 1
  178   170   169 1
  179   171   170 1
  180   172   171 1
  181   173   172 1
  182   174   153 1
  183   174   173 1
  184   175   159 1
  185   176   159 1
  186   177   164 1
  187   178   168 1
  188   179   172 1
  189   180   179 1
  190   181   179 1
  191   182   179 1
  192   183   178 1
  193   184   178 1
  194   185   178 1
  195   186   177 1
  196   187   177 1
  197   188   177 1
  198   189   176 1
  199   190   176 1
  200   191   176 1
  201   192   175 1
  202   193   175 1
  203   194   175 1
  204   195   160 1
  205   196   160 1
  206   197   158 1
  207   198   158 1
  208   199   158 1
  209   200   157 1
  210   201   157 1
  211   202   157 1
  212   203   156 1
  213   204   156 1
  214   205   156 1
  215   206   155 1
  216   207   155 1
  217   208   155 1
  218   209   154 1
  219   210   154 1
  220   211   154 1
  221   212   141 1
  222   213   146 1
  223   214   145 1
  224   215   142 1
  225   216   142 1
  226   217   174 1
  227   218   173 1
  228   219   171 1
  229   220   170 1
  230   221   169 1
  231   222   140 1
  232   223   167 1
  233   224   166 1
  234   225   165 1
  235   226   163 1
  236   227   161 1
  237   228   139 1
  238   229   139 1
  239   230   153 1
  240   231   152 1
  241   232   150 1
  242   233   149 1
  243   234   148 1
  244   235   162 1
  245   65    153 1
  246   65    174 1
@<TRIPOS>SUBSTRUCTURE
      1 CLA               1 ****               0 ****  **** 
      2 LUT             138 ****               0 ****  **** 
