@<TRIPOS>MOLECULE
Cpptraj generated mol2 file.
  235   246     2     0     0
SMALL
USER_CHARGES


@<TRIPOS>ATOM
      1 CAA        80.0980   58.4061   35.1846 a2         1 CLA     -0.055900
      2 CAB        79.4101   62.3560   43.7215 c8         1 CLA     -0.148500
      3 CAC        72.7461   58.3141   43.2994 a2         1 CLA     -0.012600
      4 CAD        75.6001   55.7447   36.2122 ck         1 CLA      0.398800
      5 NA         78.7259   58.6283   38.3040 ns         1 CLA     -0.225500
      6 CBA        81.3961   58.0162   34.4506 a2         1 CLA     -0.135000
      7 CBB        80.4042   62.5045   44.5852 c0         1 CLA     -0.395200
      8 CBC        72.8882   56.8479   43.8101 a3         1 CLA     -0.037700
      9 CBD        76.9850   56.2897   35.7971 a1         1 CLA     -0.053900
     10 NB         78.6357   60.1414   40.8580 nm         1 CLA     -0.295700
     11 OBD        75.0538   54.8558   35.6124 o2         1 CLA     -0.494600
     12 CGA        81.6883   56.4890   34.1412 c4         1 CLA      0.827000
     13 CGD        77.9211   55.1135   35.5752 c4         1 CLA      0.655300
     14 ND         75.9236   57.9892   38.8522 nm         1 CLA     -0.291600
     15 CED        78.7745   52.9500   36.4363 a3         1 CLA      0.005400
     16 CHA        77.4237   57.2342   36.9557 cs         1 CLA     -0.123800
     17 CHB        80.5755   59.8662   39.4432 aa         1 CLA     -0.291900
     18 CHC        77.1774   60.6320   42.7638 aa         1 CLA     -0.090400
     19 CHD        73.9885   57.9475   40.4507 aa         1 CLA     -0.052000
     20 CMA        81.6711   56.9623   38.3894 a3         1 CLA     -0.230700
     21 CMB        81.8614   61.9476   41.3352 a3         1 CLA     -0.180800
     22 CMC        74.9225   60.2428   44.8592 a3         1 CLA     -0.134000
     23 CMD        72.8075   56.0514   38.2631 a3         1 CLA     -0.141100
     24 C1         82.5846   54.4234   35.0360 a2         1 CLA      0.023000
     25 C1A        78.6744   57.7618   37.2303 ac         1 CLA     -0.015100
     26 C1B        79.9523   60.4414   40.5370 cr         1 CLA      0.054700
     27 C1C        76.0384   59.9424   42.5224 cn         1 CLA     -0.005600
     28 C1D        74.6264   57.6115   39.2347 ap         1 CLA     -0.047300
     29 O1A        81.4748   55.9500   33.0915 o2         1 CLA     -0.610800
     30 O1D        78.8641   55.1408   34.7515 o2         1 CLA     -0.558200
     31 C2         83.5029   54.0618   36.2354 c8         1 CLA     -0.325100
     32 C2A        79.9995   57.5393   36.5614 a1         1 CLA      0.098600
     33 C2B        80.5269   61.2791   41.5764 cb         1 CLA      0.088500
     34 C2C        74.9772   59.6821   43.4662 cb         1 CLA      0.053700
     35 C2D        74.1370   56.7375   38.2150 cb         1 CLA      0.058900
     36 O2A        82.2024   55.8558   35.1974 o1         1 CLA     -0.437200
     37 O2D        77.7329   54.0800   36.5169 o1         1 CLA     -0.357600
     38 C3         84.8452   53.8122   36.2600 c5         1 CLA      0.031200
     39 C3A        80.9729   58.1037   37.5890 a1         1 CLA      0.166800
     40 C3B        79.5122   61.5228   42.4842 cb         1 CLA      0.035000
     41 C3C        74.0537   58.8428   42.7925 cb         1 CLA     -0.089900
     42 C3D        75.2239   56.5092   37.3643 cb         1 CLA     -0.035900
     43 C4         85.5339   52.4541   36.1039 a3         1 CLA     -0.053300
     44 C4A        80.0660   58.9814   38.5297 ac         1 CLA      0.001800
     45 C4B        78.3811   60.7281   42.0522 cn         1 CLA     -0.020900
     46 C4C        74.6022   58.6287   41.4800 cr         1 CLA     -0.044400
     47 C4D        76.2482   57.3562   37.7573 c6         1 CLA     -0.046000
     48 C5         85.8515   54.9669   36.4732 a2         1 CLA     -0.070400
     49 C6         85.8028   55.5004   37.8836 a2         1 CLA      0.043900
     50 C7         86.6163   56.8472   38.0970 a2         1 CLA     -0.150000
     51 C8         88.1392   56.8221   38.4582 a1         1 CLA      0.064200
     52 C9         88.9724   55.9609   37.4800 a3         1 CLA     -0.259300
     53 C10        88.3221   56.2519   39.8699 a2         1 CLA     -0.071900
     54 C11        87.9826   57.1843   41.0804 a2         1 CLA      0.014500
     55 C12        88.5525   56.6912   42.4841 a2         1 CLA     -0.112100
     56 C13        88.5503   57.7041   43.6962 a1         1 CLA      0.089200
     57 C14        89.2937   57.0259   44.8587 a3         1 CLA     -0.239100
     58 C15        87.0491   58.0443   44.1038 a2         1 CLA     -0.102200
     59 C16        86.8051   59.5445   44.3424 a2         1 CLA      0.023900
     60 C17        85.2948   59.9528   44.5952 a2         1 CLA     -0.105700
     61 C18        84.6560   59.4274   45.8584 a1         1 CLA      0.206800
     62 C19        85.3662   59.8896   47.1650 a3         1 CLA     -0.280100
     63 C20        83.1518   59.7065   45.9139 a3         1 CLA     -0.280100
     64 NC         75.8395   59.1803   41.3642 nx         1 CLA     -0.309200
     65 MG         77.2228   59.0904   39.7490 mg         1 CLA      0.895000
     66 HMD3       72.1369   56.8279   37.9938 dc         1 CLA      0.064300
     67 HMD2       72.8252   55.2244   37.4935 dc         1 CLA      0.064300
     68 HMD1       72.7595   55.5033   39.1709 dc         1 CLA      0.064300
     69 HMC3       73.9440   59.9625   45.2855 dc         1 CLA      0.052100
     70 HMC2       75.6243   59.8393   45.4683 dc         1 CLA      0.052100
     71 HMC1       74.9344   61.3355   44.8249 dc         1 CLA      0.052100
     72 HMB3       82.6029   61.1992   41.0856 dc         1 CLA      0.063600
     73 HMB2       81.7179   62.7197   40.5686 dc         1 CLA      0.063600
     74 HMB1       82.1994   62.3310   42.2182 dc         1 CLA      0.063600
     75 HMA3       82.2347   57.5384   39.0703 dc         1 CLA      0.058300
     76 HMA2       80.9872   56.2512   38.9295 dc         1 CLA      0.058300
     77 HMA1       82.2629   56.3455   37.6616 dc         1 CLA      0.058300
     78 HED3       79.1720   52.7659   35.4152 dc         1 CLA      0.079300
     79 HED2       79.5418   53.2357   37.1274 dc         1 CLA      0.079300
     80 HED1       78.2589   52.0489   36.7701 dc         1 CLA      0.079300
     81 HBC3       73.2327   56.2456   42.9985 dc         1 CLA      0.016300
     82 HBC2       73.7405   56.9534   44.5848 dc         1 CLA      0.016300
     83 HBC1       71.9769   56.4694   44.2396 dc         1 CLA      0.016300
     84 HBB2       80.3205   63.2754   45.4018 da         1 CLA      0.183000
     85 HBB1       81.4626   62.1551   44.4125 da         1 CLA      0.183000
     86 HBA2       81.3478   58.5695   33.5094 dc         1 CLA      0.029400
     87 HBA1       82.1908   58.3824   35.0429 dc         1 CLA      0.029400
     88 HAC2       72.3476   58.9934   44.0761 dc         1 CLA      0.029300
     89 HAC1       72.0815   58.3925   42.4750 dc         1 CLA      0.029300
     90 HAA2       79.0671   58.2220   34.7809 dc         1 CLA      0.028700
     91 HAA1       80.2458   59.4539   35.4844 dc         1 CLA      0.028700
     92 H203       82.9518   60.7644   45.7876 dc         1 CLA      0.065600
     93 H202       82.7351   59.0611   45.1257 dc         1 CLA      0.065600
     94 H201       82.7533   59.3408   46.8524 dc         1 CLA      0.065600
     95 H193       85.2458   60.9851   47.1391 dc         1 CLA      0.065600
     96 H192       84.8302   59.5366   48.0992 dc         1 CLA      0.065600
     97 H191       86.4533   59.5913   47.2278 dc         1 CLA      0.065600
     98 H172       85.1177   61.0402   44.6071 dc         1 CLA      0.027600
     99 H171       84.6511   59.5275   43.7281 dc         1 CLA      0.027600
    100 H162       87.3435   59.9133   45.1975 dc         1 CLA      0.002900
    101 H161       87.1435   60.0608   43.4510 dc         1 CLA      0.002900
    102 H152       86.3340   57.7894   43.2559 dc         1 CLA      0.029100
    103 H151       86.7488   57.4638   44.9734 dc         1 CLA      0.029100
    104 H143       88.8096   56.1062   45.1672 dc         1 CLA      0.063600
    105 H142       90.3251   56.7983   44.7014 dc         1 CLA      0.063600
    106 H141       89.1254   57.7218   45.7032 dc         1 CLA      0.063600
    107 H122       87.8869   55.8724   42.8106 dc         1 CLA      0.032500
    108 H121       89.5493   56.2655   42.3338 dc         1 CLA      0.032500
    109 H112       88.3767   58.1809   40.9065 dc         1 CLA      0.006600
    110 H111       86.8875   57.3434   41.0890 dc         1 CLA      0.006600
    111 H102       87.7933   55.2928   39.9011 dc         1 CLA      0.024100
    112 H101       89.3661   56.0091   39.9720 dc         1 CLA      0.024100
    113 HHD        73.0803   57.3591   40.8079 da         1 CLA      0.174300
    114 HHC        77.1632   61.0713   43.7167 da         1 CLA      0.136800
    115 HHB        81.6548   60.1413   39.2686 da         1 CLA      0.138300
    116 HBD        76.8378   56.7858   34.9019 dc         1 CLA      0.107700
    117 HAB        78.4478   62.8077   43.9934 da         1 CLA      0.155200
    118 H93        88.7083   54.9040   37.7784 dc         1 CLA      0.069500
    119 H92        88.6405   56.1092   36.4544 dc         1 CLA      0.069500
    120 H91        89.9710   56.2675   37.6820 dc         1 CLA      0.069500
    121 H8         88.5438   57.8501   38.3142 dc         1 CLA      0.029300
    122 H72        86.5845   57.3809   37.0970 dc         1 CLA      0.044400
    123 H71        86.0464   57.5836   38.7063 dc         1 CLA      0.044400
    124 H62        84.8355   55.9037   37.9611 dc         1 CLA      0.015600
    125 H61        86.1111   54.7300   38.6003 dc         1 CLA      0.015600
    126 H52        86.9149   54.6997   36.3025 dc         1 CLA      0.033200
    127 H51        85.6450   55.7582   35.7703 dc         1 CLA      0.033200
    128 H43        86.1181   52.3129   35.1239 dc         1 CLA      0.037000
    129 H42        86.1275   52.4777   36.9276 dc         1 CLA      0.037000
    130 H41        84.7390   51.7260   36.1937 dc         1 CLA      0.037000
    131 H3A        81.7364   58.6321   37.0407 dc         1 CLA      0.041100
    132 H2A        80.3106   56.5435   36.3308 dc         1 CLA      0.083100
    133 H2         82.9916   53.9535   37.2444 da         1 CLA      0.180900
    134 H18        84.7939   58.3535   45.9574 dc         1 CLA     -0.003900
    135 H13        88.9533   58.6017   43.4087 dc         1 CLA      0.019700
    136 H12        81.6910   53.8189   35.0841 dc         1 CLA      0.120400
    137 H11        83.1088   54.3474   34.1035 dc         1 CLA      0.120400
    138 C1         70.0115   61.8019   50.1996 Z1         2 LUT      0.509236
    139 C2         68.9056   61.3631   51.2059 Z2         2 LUT     -0.434695
    140 C3         67.9668   62.5491   51.6140 Z3         2 LUT      0.437453
    141 O3         68.1223   63.0406   53.0043 S1         2 LUT     -0.547129
    142 C4         67.9829   63.8058   50.6957 Z4         2 LUT     -0.468603
    143 C5         68.3945   63.5068   49.3395 Z5         2 LUT      0.279246
    144 C6         69.4195   62.6365   49.0718 Z6         2 LUT     -0.305473
    145 C7         69.7714   62.3768   47.6505 Z7         2 LUT      0.069402
    146 C8         70.9414   62.5711   47.0536 Z8         2 LUT     -0.191631
    147 C9         71.4480   62.4167   45.7160 Z9         2 LUT      0.196698
    148 C10        72.4322   63.2412   45.3129 Y1         2 LUT     -0.208611
    149 C11        73.2038   63.2592   44.0852 Y2         2 LUT      0.030784
    150 C12        74.4298   63.8732   43.9431 Y3         2 LUT     -0.220316
    151 C13        75.3306   63.6503   42.8197 Y4         2 LUT      0.215937
    152 C14        76.5703   64.2814   42.8717 Y5         2 LUT     -0.185793
    153 C15        77.6616   64.3230   41.8760 Y6         2 LUT     -0.057835
    154 C16        70.7516   60.5379   49.7407 Y7         2 LUT     -0.405615
    155 C17        71.1786   62.4202   51.0044 Y7         2 LUT     -0.405615
    156 C18        67.8045   64.4791   48.2566 Y9         2 LUT     -0.369639
    157 C19        70.9021   61.2943   44.9581 W1         2 LUT     -0.333362
    158 C20        74.8609   62.7844   41.5682 W2         2 LUT     -0.323439
    159 C21        89.2662   65.3845   35.4686 Z1         2 LUT      0.406104
    160 C22        89.8494   64.6386   34.2117 Z2         2 LUT     -0.404965
    161 C23        89.7245   65.6028   33.0185 Z3         2 LUT      0.391255
    162 O23        90.0996   64.7815   31.9177 S1         2 LUT     -0.528210
    163 C24        88.4981   66.4977   32.9575 W6         2 LUT     -0.258361
    164 C25        87.5586   66.5188   33.9006 Z5         2 LUT      0.133546
    165 C26        87.6491   65.6248   35.1798 W8         2 LUT     -0.147008
    166 C27        86.9610   66.1883   36.4209 Z7         2 LUT      0.023843
    167 C28        85.6895   65.9437   36.8308 Z8         2 LUT     -0.216987
    168 C29        85.1440   66.2954   38.1573 Z9         2 LUT      0.206524
    169 C30        83.8775   65.8516   38.4736 Y1         2 LUT     -0.215556
    170 C31        83.1310   65.9488   39.6601 Y2         2 LUT      0.025142
    171 C32        81.8987   65.4958   39.9712 Y3         2 LUT     -0.212209
    172 C33        81.0669   65.6094   41.2165 Y4         2 LUT      0.240937
    173 C34        79.8809   65.0646   41.2322 Y5         2 LUT     -0.218862
    174 C35        78.8214   64.9688   42.1494 Y6         2 LUT     -0.023547
    175 C36        90.1935   66.5932   35.8156 Y7         2 LUT     -0.393485
    176 C37        89.4561   64.4709   36.6710 Y7         2 LUT     -0.393485
    177 C38        86.3377   67.3884   33.7027 Y9         2 LUT     -0.387526
    178 C39        86.1306   66.9642   39.0736 W1         2 LUT     -0.322618
    179 C40        81.4793   66.5348   42.3493 W2         2 LUT     -0.358472
    180 H403       81.8029   67.4876   42.0131 R7         2 LUT      0.097720
    181 H402       80.6329   66.6729   42.9831 R7         2 LUT      0.097720
    182 H401       82.2829   66.0642   42.9128 R7         2 LUT      0.097720
    183 H393       86.8946   66.2143   39.3107 R4         2 LUT      0.082505
    184 H392       86.5773   67.8188   38.6586 R4         2 LUT      0.082505
    185 H391       85.7416   67.4090   40.0176 R4         2 LUT      0.082505
    186 H383       85.6845   67.4959   34.5947 R1         2 LUT      0.104030
    187 H382       86.7668   68.3125   33.3646 R1         2 LUT      0.104030
    188 H381       85.7650   67.0662   32.7814 R1         2 LUT      0.104030
    189 H373       88.9005   64.6839   37.5364 T4         2 LUT      0.089537
    190 H372       89.2192   63.4955   36.3479 T4         2 LUT      0.089537
    191 H371       90.5396   64.4983   36.9363 T4         2 LUT      0.089537
    192 H363       89.8488   66.9325   36.8061 T4         2 LUT      0.089537
    193 H362       91.2210   66.2723   35.8522 T4         2 LUT      0.089537
    194 H361       90.0657   67.5186   35.2089 T4         2 LUT      0.089537
    195 H222       90.9677   64.3405   34.3270 U2         2 LUT      0.127376
    196 H221       89.2565   63.6882   34.1102 U2         2 LUT      0.127376
    197 H203       75.6684   62.3600   40.9956 R7         2 LUT      0.087068
    198 H202       74.3139   61.8919   41.8357 R7         2 LUT      0.087068
    199 H201       74.2892   63.4976   41.0190 R7         2 LUT      0.087068
    200 H193       71.5914   61.0409   44.1553 R4         2 LUT      0.089716
    201 H192       70.6226   60.5243   45.5775 R4         2 LUT      0.089716
    202 H191       69.9663   61.4690   44.4813 R4         2 LUT      0.089716
    203 H183       68.2822   65.4680   48.2905 R1         2 LUT      0.094572
    204 H182       67.9439   64.1174   47.2579 R1         2 LUT      0.094572
    205 H181       66.7330   64.6834   48.4505 R1         2 LUT      0.094572
    206 H173       72.0600   62.6050   50.4344 T4         2 LUT      0.093752
    207 H172       70.7962   63.4350   51.3242 T4         2 LUT      0.093752
    208 H171       71.3726   61.8189   51.9295 T4         2 LUT      0.093752
    209 H163       71.6339   60.6588   49.1490 T4         2 LUT      0.093752
    210 H162       71.0960   59.8878   50.6024 T4         2 LUT      0.093752
    211 H161       69.9490   60.0363   49.1997 T4         2 LUT      0.093752
    212 HO3        68.1135   62.4346   53.6839 Q1         2 LUT      0.300121
    213 H8         71.6198   63.0334   47.7627 U7         2 LUT      0.080784
    214 H7         68.9786   61.8751   47.0958 U6         2 LUT      0.042190
    215 H42        66.9360   64.1148   50.6318 U5         2 LUT      0.145166
    216 H41        68.6252   64.6372   51.0665 U5         2 LUT      0.145166
    217 H35        78.8919   65.4356   43.1700 T3         2 LUT      0.077919
    218 H34        79.5340   64.5884   40.3039 T2         2 LUT      0.073626
    219 H32        81.3479   65.0270   39.1130 T1         2 LUT      0.092510
    220 H31        83.6482   66.4498   40.5005 U9         2 LUT      0.070048
    221 H30        83.3664   65.3872   37.7061 U8         2 LUT      0.085442
    222 H3         66.8954   62.1911   51.7140 U3         2 LUT     -0.031596
    223 H28        85.0173   65.3942   36.1987 U7         2 LUT      0.084728
    224 H27        87.6564   66.7443   37.0520 U6         2 LUT      0.087291
    225 H26        87.1920   64.6285   34.9437 Q6         2 LUT      0.075325
    226 H24        88.3325   67.1244   32.0415 Q5         2 LUT      0.094482
    227 H23        90.6642   66.1916   33.0269 U3         2 LUT     -0.024869
    228 H22        68.2928   60.6796   50.5699 U2         2 LUT      0.127376
    229 H21        69.3287   60.8158   52.0201 U2         2 LUT      0.127376
    230 H15        77.3945   63.8378   40.9011 T3         2 LUT      0.093200
    231 H14        76.8718   64.8047   43.7265 T2         2 LUT      0.068865
    232 H12        74.6544   64.4027   44.8468 T1         2 LUT      0.095507
    233 H11        72.8642   62.5893   43.3341 U9         2 LUT      0.068930
    234 H10        72.8601   63.9777   46.0308 U8         2 LUT      0.083911
    235 H1         90.2623   65.3611   31.2055 Q1         2 LUT      0.297311
@<TRIPOS>BOND
    1     6     1 1
    2     7     2 1
    3     8     3 1
    4     9     4 1
    5    11     4 1
    6    12     6 1
    7    13     9 1
    8    16     9 1
    9    25     5 1
   10    25    16 1
   11    26    10 1
   12    26    17 1
   13    27    18 1
   14    28    14 1
   15    28    19 1
   16    29    12 1
   17    30    13 1
   18    31    24 1
   19    32     1 1
   20    32    25 1
   21    33    21 1
   22    33    26 1
   23    34    22 1
   24    34    27 1
   25    35    23 1
   26    35    28 1
   27    36    12 1
   28    36    24 1
   29    37    13 1
   30    37    15 1
   31    38    31 1
   32    39    20 1
   33    39    32 1
   34    40     2 1
   35    40    33 1
   36    41     3 1
   37    41    34 1
   38    42     4 1
   39    42    35 1
   40    43    38 1
   41    44     5 1
   42    44    17 1
   43    44    39 1
   44    45    10 1
   45    45    18 1
   46    45    40 1
   47    46    19 1
   48    46    41 1
   49    47    14 1
   50    47    16 1
   51    47    42 1
   52    48    38 1
   53    49    48 1
   54    50    49 1
   55    51    50 1
   56    52    51 1
   57    53    51 1
   58    54    53 1
   59    55    54 1
   60    56    55 1
   61    57    56 1
   62    58    56 1
   63    59    58 1
   64    60    59 1
   65    61    60 1
   66    62    61 1
   67    63    61 1
   68    64    27 1
   69    64    46 1
   70    65     5 1
   71    65    10 1
   72    65    64 1
   73    65    14 1
   74    66    23 1
   75    67    23 1
   76    68    23 1
   77    69    22 1
   78    70    22 1
   79    71    22 1
   80    72    21 1
   81    73    21 1
   82    74    21 1
   83    75    20 1
   84    76    20 1
   85    77    20 1
   86    78    15 1
   87    79    15 1
   88    80    15 1
   89    81     8 1
   90    82     8 1
   91    83     8 1
   92    84     7 1
   93    85     7 1
   94    86     6 1
   95    87     6 1
   96    88     3 1
   97    89     3 1
   98    90     1 1
   99    91     1 1
  100    92    63 1
  101    93    63 1
  102    94    63 1
  103    95    62 1
  104    96    62 1
  105    97    62 1
  106    98    60 1
  107    99    60 1
  108   100    59 1
  109   101    59 1
  110   102    58 1
  111   103    58 1
  112   104    57 1
  113   105    57 1
  114   106    57 1
  115   107    55 1
  116   108    55 1
  117   109    54 1
  118   110    54 1
  119   111    53 1
  120   112    53 1
  121   113    19 1
  122   114    18 1
  123   115    17 1
  124   116     9 1
  125   117     2 1
  126   118    52 1
  127   119    52 1
  128   120    52 1
  129   121    51 1
  130   122    50 1
  131   123    50 1
  132   124    49 1
  133   125    49 1
  134   126    48 1
  135   127    48 1
  136   128    43 1
  137   129    43 1
  138   130    43 1
  139   131    39 1
  140   132    32 1
  141   133    31 1
  142   134    61 1
  143   135    56 1
  144   136    24 1
  145   137    24 1
  146   139   138 1
  147   140   139 1
  148   141   140 1
  149   142   140 1
  150   143   142 1
  151   144   138 1
  152   144   143 1
  153   145   144 1
  154   146   145 1
  155   147   146 1
  156   148   147 1
  157   149   148 1
  158   150   149 1
  159   151   150 1
  160   152   151 1
  161   153   152 1
  162   154   138 1
  163   155   138 1
  164   156   143 1
  165   157   147 1
  166   158   151 1
  167   160   159 1
  168   161   160 1
  169   162   161 1
  170   163   161 1
  171   164   163 1
  172   165   159 1
  173   165   164 1
  174   166   165 1
  175   167   166 1
  176   168   167 1
  177   169   168 1
  178   170   169 1
  179   171   170 1
  180   172   171 1
  181   173   172 1
  182   174   153 1
  183   174   173 1
  184   175   159 1
  185   176   159 1
  186   177   164 1
  187   178   168 1
  188   179   172 1
  189   180   179 1
  190   181   179 1
  191   182   179 1
  192   183   178 1
  193   184   178 1
  194   185   178 1
  195   186   177 1
  196   187   177 1
  197   188   177 1
  198   189   176 1
  199   190   176 1
  200   191   176 1
  201   192   175 1
  202   193   175 1
  203   194   175 1
  204   195   160 1
  205   196   160 1
  206   197   158 1
  207   198   158 1
  208   199   158 1
  209   200   157 1
  210   201   157 1
  211   202   157 1
  212   203   156 1
  213   204   156 1
  214   205   156 1
  215   206   155 1
  216   207   155 1
  217   208   155 1
  218   209   154 1
  219   210   154 1
  220   211   154 1
  221   212   141 1
  222   213   146 1
  223   214   145 1
  224   215   142 1
  225   216   142 1
  226   217   174 1
  227   218   173 1
  228   219   171 1
  229   220   170 1
  230   221   169 1
  231   222   140 1
  232   223   167 1
  233   224   166 1
  234   225   165 1
  235   226   163 1
  236   227   161 1
  237   228   139 1
  238   229   139 1
  239   230   153 1
  240   231   152 1
  241   232   150 1
  242   233   149 1
  243   234   148 1
  244   235   162 1
  245   65    153 1
  246   65    174 1
@<TRIPOS>SUBSTRUCTURE
      1 CLA               1 ****               0 ****  **** 
      2 LUT             138 ****               0 ****  **** 
