@<TRIPOS>MOLECULE
Cpptraj generated mol2 file.
  235   246     2     0     0
SMALL
USER_CHARGES


@<TRIPOS>ATOM
      1 CAA        77.2164   58.8937   35.1619 a2         1 CLA     -0.055900
      2 CAB        77.3966   62.1995   44.2623 c8         1 CLA     -0.148500
      3 CAC        70.3710   57.9621   43.4446 a2         1 CLA     -0.012600
      4 CAD        73.2569   55.9117   36.1627 ck         1 CLA      0.398800
      5 NA         76.3579   58.7940   38.6488 ns         1 CLA     -0.225500
      6 CBA        78.3895   58.8309   34.0930 a2         1 CLA     -0.135000
      7 CBB        76.4070   62.9605   44.8239 c0         1 CLA     -0.395200
      8 CBC        70.4400   56.4312   43.4972 a3         1 CLA     -0.037700
      9 CBD        74.7396   56.5032   35.8508 a1         1 CLA     -0.053900
     10 NB         76.1251   60.2935   41.2012 nm         1 CLA     -0.295700
     11 OBD        72.5885   55.1156   35.4593 o2         1 CLA     -0.494600
     12 CGA        78.8757   57.4986   33.6454 c4         1 CLA      0.827000
     13 CGD        75.6545   55.3451   35.5697 c4         1 CLA      0.655300
     14 ND         73.5114   57.9743   39.1511 nm         1 CLA     -0.291600
     15 CED        76.6117   53.2454   36.3214 a3         1 CLA      0.005400
     16 CHA        75.0945   57.3611   37.1355 cs         1 CLA     -0.123800
     17 CHB        78.0076   60.3567   39.6303 aa         1 CLA     -0.291900
     18 CHC        74.7991   60.4770   43.2540 aa         1 CLA     -0.090400
     19 CHD        71.6417   57.8552   40.6345 aa         1 CLA     -0.052000
     20 CMA        79.6205   58.1924   37.8932 a3         1 CLA     -0.230700
     21 CMB        79.4291   61.8388   41.9802 a3         1 CLA     -0.180800
     22 CMC        72.3551   59.8418   45.1656 a3         1 CLA     -0.134000
     23 CMD        70.3334   56.0507   38.2654 a3         1 CLA     -0.141100
     24 C1         80.0175   55.4874   34.2939 a2         1 CLA      0.023000
     25 C1A        76.2151   58.1023   37.4419 ac         1 CLA     -0.015100
     26 C1B        77.4410   60.6799   40.8506 cr         1 CLA      0.054700
     27 C1C        73.6483   59.7194   42.8840 cn         1 CLA     -0.005600
     28 C1D        72.2299   57.5029   39.4493 ap         1 CLA     -0.047300
     29 O1A        78.7501   56.9895   32.5667 o2         1 CLA     -0.610800
     30 O1D        76.2818   55.2480   34.5537 o2         1 CLA     -0.558200
     31 C2         80.6517   54.9626   35.5390 c8         1 CLA     -0.325100
     32 C2A        77.4451   58.2027   36.5662 a1         1 CLA      0.098600
     33 C2B        78.0072   61.4078   41.9631 cb         1 CLA      0.088500
     34 C2C        72.5164   59.3728   43.8138 cb         1 CLA      0.053700
     35 C2D        71.6759   56.6793   38.3037 cb         1 CLA      0.058900
     36 O2A        79.5706   56.8470   34.5805 o1         1 CLA     -0.437200
     37 O2D        75.7093   54.4138   36.5585 o1         1 CLA     -0.357600
     38 C3         81.9714   54.9177   35.7848 c5         1 CLA      0.031200
     39 C3A        78.3703   59.0374   37.4501 a1         1 CLA      0.166800
     40 C3B        77.1180   61.5267   42.9421 cb         1 CLA      0.035000
     41 C3C        71.6541   58.5593   43.0024 cb         1 CLA     -0.089900
     42 C3D        72.7661   56.5732   37.4234 cb         1 CLA     -0.035900
     43 C4         82.7962   53.7931   35.2607 a3         1 CLA     -0.053300
     44 C4A        77.5301   59.4462   38.6260 ac         1 CLA      0.001800
     45 C4B        75.9211   60.7525   42.5082 cn         1 CLA     -0.020900
     46 C4C        72.2385   58.5799   41.6907 cr         1 CLA     -0.044400
     47 C4D        73.8892   57.4023   37.9281 c6         1 CLA     -0.046000
     48 C5         82.6369   55.9135   36.7454 a2         1 CLA     -0.070400
     49 C6         83.8497   55.3469   37.5265 a2         1 CLA      0.043900
     50 C7         84.0486   55.9568   38.9281 a2         1 CLA     -0.150000
     51 C8         84.0601   57.5099   39.0128 a1         1 CLA      0.064200
     52 C9         85.3392   58.1962   38.3219 a3         1 CLA     -0.259300
     53 C10        84.0140   58.0864   40.5175 a2         1 CLA     -0.071900
     54 C11        82.6114   58.0505   41.1869 a2         1 CLA      0.014500
     55 C12        82.3564   59.1832   42.1623 a2         1 CLA     -0.112100
     56 C13        83.2531   59.2906   43.4884 a1         1 CLA      0.089200
     57 C14        83.3627   57.9519   44.2623 a3         1 CLA     -0.239100
     58 C15        82.7589   60.3595   44.4996 a2         1 CLA     -0.102200
     59 C16        83.6712   60.7198   45.7235 a2         1 CLA      0.023900
     60 C17        83.3124   61.9412   46.5518 a2         1 CLA     -0.105700
     61 C18        81.8978   62.0053   47.1276 a1         1 CLA      0.206800
     62 C19        81.8603   62.9631   48.3759 a3         1 CLA     -0.280100
     63 C20        80.8106   62.5301   46.1386 a3         1 CLA     -0.280100
     64 NC         73.4875   59.1691   41.6548 nx         1 CLA     -0.309200
     65 MG         74.7331   59.1748   40.1311 mg         1 CLA      0.895000
     66 HMD3       70.0731   55.6071   39.2049 dc         1 CLA      0.064300
     67 HMD2       69.6056   56.8025   37.9727 dc         1 CLA      0.064300
     68 HMD1       70.4413   55.2940   37.4929 dc         1 CLA      0.064300
     69 HMC3       72.7182   60.8698   45.1671 dc         1 CLA      0.052100
     70 HMC2       71.3386   59.8032   45.6064 dc         1 CLA      0.052100
     71 HMC1       73.0686   59.2713   45.7687 dc         1 CLA      0.052100
     72 HMB3       79.6287   62.4068   42.8820 dc         1 CLA      0.063600
     73 HMB2       80.0715   60.9798   42.0333 dc         1 CLA      0.063600
     74 HMB1       79.5459   62.4217   41.0205 dc         1 CLA      0.063600
     75 HMA3       79.2388   57.4140   38.5709 dc         1 CLA      0.058300
     76 HMA2       80.0788   57.7027   37.0169 dc         1 CLA      0.058300
     77 HMA1       80.4106   58.7885   38.3556 dc         1 CLA      0.058300
     78 HED3       77.6114   53.5459   36.1558 dc         1 CLA      0.079300
     79 HED2       76.5829   52.5316   37.1131 dc         1 CLA      0.079300
     80 HED1       76.2675   52.6968   35.4437 dc         1 CLA      0.079300
     81 HBC3       71.1038   56.0585   44.2537 dc         1 CLA      0.016300
     82 HBC2       69.4459   55.9857   43.7403 dc         1 CLA      0.016300
     83 HBC1       70.7885   55.9536   42.5784 dc         1 CLA      0.016300
     84 HBB2       76.5841   63.5505   45.7479 da         1 CLA      0.183000
     85 HBB1       75.4516   63.0945   44.2696 da         1 CLA      0.183000
     86 HBA2       77.9306   59.3022   33.2530 dc         1 CLA      0.029400
     87 HBA1       79.1775   59.4682   34.4980 dc         1 CLA      0.029400
     88 HAC2       70.0496   58.3320   44.4241 dc         1 CLA      0.029300
     89 HAC1       69.6110   58.1726   42.7308 dc         1 CLA      0.029300
     90 HAA2       76.3195   58.4503   34.7081 dc         1 CLA      0.028700
     91 HAA1       77.0254   59.9306   35.2112 dc         1 CLA      0.028700
     92 H203       80.6759   61.9643   45.2589 dc         1 CLA      0.065600
     93 H202       79.9399   62.5474   46.6770 dc         1 CLA      0.065600
     94 H201       81.1120   63.5468   45.7972 dc         1 CLA      0.065600
     95 H193       80.9142   62.8073   48.9313 dc         1 CLA      0.065600
     96 H192       82.7689   62.9242   49.0270 dc         1 CLA      0.065600
     97 H191       81.9602   63.9762   47.9842 dc         1 CLA      0.065600
     98 H172       84.0537   61.8441   47.3895 dc         1 CLA      0.027600
     99 H171       83.3754   62.9563   46.1619 dc         1 CLA      0.027600
    100 H162       83.5967   59.9089   46.4371 dc         1 CLA      0.002900
    101 H161       84.6893   60.7932   45.3598 dc         1 CLA      0.002900
    102 H152       82.7032   61.2365   43.8107 dc         1 CLA      0.029100
    103 H151       81.7742   60.1114   44.8930 dc         1 CLA      0.029100
    104 H143       83.7729   57.1548   43.5963 dc         1 CLA      0.063600
    105 H142       84.0006   58.1220   45.0540 dc         1 CLA      0.063600
    106 H141       82.3575   57.6575   44.5629 dc         1 CLA      0.063600
    107 H122       82.3940   60.0265   41.5377 dc         1 CLA      0.032500
    108 H121       81.3092   59.0107   42.3981 dc         1 CLA      0.032500
    109 H112       81.8422   58.0460   40.3922 dc         1 CLA      0.006600
    110 H111       82.4865   57.1465   41.6862 dc         1 CLA      0.006600
    111 H102       84.7981   57.6284   41.1442 dc         1 CLA      0.024100
    112 H101       84.2734   59.1157   40.3716 dc         1 CLA      0.024100
    113 HHD        70.6876   57.4346   40.8044 da         1 CLA      0.174300
    114 HHC        74.8361   60.9809   44.2237 da         1 CLA      0.136800
    115 HHB        78.9677   60.7915   39.4431 da         1 CLA      0.138300
    116 HBD        74.6825   57.2567   35.0557 dc         1 CLA      0.107700
    117 HAB        78.4267   62.2133   44.6835 da         1 CLA      0.155200
    118 H93        85.4046   59.2883   38.4506 dc         1 CLA      0.069500
    119 H92        86.2551   57.8118   38.7693 dc         1 CLA      0.069500
    120 H91        85.3412   57.8976   37.2540 dc         1 CLA      0.069500
    121 H8         83.2090   57.9251   38.3493 dc         1 CLA      0.029300
    122 H72        83.3181   55.7049   39.6370 dc         1 CLA      0.044400
    123 H71        85.0095   55.6110   39.2433 dc         1 CLA      0.044400
    124 H62        83.4769   54.3842   37.8712 dc         1 CLA      0.015600
    125 H61        84.7291   55.2964   36.8633 dc         1 CLA      0.015600
    126 H52        82.8720   56.8700   36.2377 dc         1 CLA      0.033200
    127 H51        81.9686   56.1445   37.5616 dc         1 CLA      0.033200
    128 H43        82.3749   53.4015   34.3503 dc         1 CLA      0.037000
    129 H42        83.8666   54.0887   35.1652 dc         1 CLA      0.037000
    130 H41        82.7608   53.0375   36.0471 dc         1 CLA      0.037000
    131 H3A        78.7287   59.9195   36.9146 dc         1 CLA      0.041100
    132 H2A        77.7836   57.1635   36.5281 dc         1 CLA      0.083100
    133 H2         80.0591   54.2951   36.1421 da         1 CLA      0.180900
    134 H18        81.5393   61.0965   47.5864 dc         1 CLA     -0.003900
    135 H13        84.3319   59.4679   43.3103 dc         1 CLA      0.019700
    136 H12        79.0987   54.9515   34.1687 dc         1 CLA      0.120400
    137 H11        80.7322   55.4378   33.4575 dc         1 CLA      0.120400
    138 C1         66.8492   61.5292   50.6597 Z1         2 LUT      0.509236
    139 C2         66.8564   62.7501   51.6466 Z2         2 LUT     -0.434695
    140 C3         65.5266   63.3969   51.9188 Z3         2 LUT      0.437453
    141 O3         65.7162   64.5929   52.6253 S1         2 LUT     -0.547129
    142 C4         64.8524   63.6344   50.5587 Z4         2 LUT     -0.468603
    143 C5         65.4916   63.1043   49.3008 Z5         2 LUT      0.279246
    144 C6         66.2825   62.0162   49.3411 Z6         2 LUT     -0.305473
    145 C7         67.1128   61.6076   48.1423 Z7         2 LUT      0.069402
    146 C8         67.8359   62.4168   47.3380 Z8         2 LUT     -0.191631
    147 C9         68.5051   62.0315   46.0684 Z9         2 LUT      0.196698
    148 C10        69.4672   62.8915   45.6276 Y1         2 LUT     -0.208611
    149 C11        70.2337   62.8288   44.4424 Y2         2 LUT      0.030784
    150 C12        71.2633   63.6084   43.9315 Y3         2 LUT     -0.220316
    151 C13        72.2007   63.3967   42.8101 Y4         2 LUT      0.215937
    152 C14        73.3071   64.1933   42.7396 Y5         2 LUT     -0.185793
    153 C15        74.4009   64.1241   41.8018 Y6         2 LUT     -0.057835
    154 C16        65.8085   60.5884   51.3751 Y7         2 LUT     -0.405615
    155 C17        68.3410   60.9665   50.6654 Y7         2 LUT     -0.405615
    156 C18        65.1258   64.0260   48.1336 Y9         2 LUT     -0.369639
    157 C19        68.1824   60.7928   45.3476 W1         2 LUT     -0.333362
    158 C20        71.8494   62.3230   41.8265 W2         2 LUT     -0.323439
    159 C21        86.0706   65.2936   36.0395 Z1         2 LUT      0.406104
    160 C22        86.8323   64.7788   34.7948 Z2         2 LUT     -0.404965
    161 C23        86.8601   65.7599   33.6001 Z3         2 LUT      0.391255
    162 O23        87.6229   65.2542   32.5140 S1         2 LUT     -0.528210
    163 C24        85.5221   66.3865   33.3489 W6         2 LUT     -0.258361
    164 C25        84.4891   66.3971   34.1413 Z5         2 LUT      0.133546
    165 C26        84.5874   65.5873   35.4742 W8         2 LUT     -0.147008
    166 C27        83.7937   66.2605   36.5817 Z7         2 LUT      0.023843
    167 C28        82.7730   65.6925   37.1763 Z8         2 LUT     -0.216987
    168 C29        81.9130   66.2262   38.2453 Z9         2 LUT      0.206524
    169 C30        80.6963   65.5900   38.5581 Y1         2 LUT     -0.215556
    170 C31        79.8354   65.9279   39.6043 Y2         2 LUT      0.025142
    171 C32        78.8066   65.1796   39.9968 Y3         2 LUT     -0.212209
    172 C33        77.8590   65.4440   41.0244 Y4         2 LUT      0.240937
    173 C34        76.7294   64.7011   41.1822 Y5         2 LUT     -0.218862
    174 C35        75.5694   64.8764   42.0026 Y6         2 LUT     -0.023547
    175 C36        87.0445   66.4235   36.6522 Y7         2 LUT     -0.393485
    176 C37        85.9936   64.1440   37.0733 Y7         2 LUT     -0.393485
    177 C38        83.2625   67.1225   33.6867 Y9         2 LUT     -0.387526
    178 C39        82.4144   67.4979   38.9510 W1         2 LUT     -0.322618
    179 C40        78.1077   66.5574   41.9759 W2         2 LUT     -0.358472
    180 H403       77.4986   66.4160   42.9041 R7         2 LUT      0.097720
    181 H402       79.1268   66.7040   42.3285 R7         2 LUT      0.097720
    182 H401       77.9337   67.5866   41.5713 R7         2 LUT      0.097720
    183 H393       81.8479   67.7824   39.8605 R4         2 LUT      0.082505
    184 H392       83.4238   67.4144   39.2865 R4         2 LUT      0.082505
    185 H391       82.3011   68.3599   38.2897 R4         2 LUT      0.082505
    186 H383       82.3817   66.5065   33.8314 R1         2 LUT      0.104030
    187 H382       83.2699   68.0577   34.1820 R1         2 LUT      0.104030
    188 H381       83.3121   67.3194   32.5969 R1         2 LUT      0.104030
    189 H373       86.9850   63.8347   37.3402 T4         2 LUT      0.089537
    190 H372       85.5046   64.5343   37.9397 T4         2 LUT      0.089537
    191 H371       85.3276   63.3890   36.8052 T4         2 LUT      0.089537
    192 H363       87.9501   65.8930   37.0564 T4         2 LUT      0.089537
    193 H362       87.3650   67.1229   35.9045 T4         2 LUT      0.089537
    194 H361       86.5565   66.8975   37.4667 T4         2 LUT      0.089537
    195 H222       87.8092   64.5288   35.0030 U2         2 LUT      0.127376
    196 H221       86.3450   63.9055   34.4046 U2         2 LUT      0.127376
    197 H203       71.2924   61.4774   42.2567 R7         2 LUT      0.087068
    198 H202       71.0609   62.6903   41.1137 R7         2 LUT      0.087068
    199 H201       72.7633   61.9632   41.3122 R7         2 LUT      0.087068
    200 H193       67.3107   60.8022   44.6087 R4         2 LUT      0.089716
    201 H192       68.9986   60.4185   44.7160 R4         2 LUT      0.089716
    202 H191       67.9376   60.0684   46.1117 R4         2 LUT      0.089716
    203 H183       65.6679   65.0212   48.1360 R1         2 LUT      0.094572
    204 H182       65.3701   63.5163   47.1718 R1         2 LUT      0.094572
    205 H181       64.0381   64.2849   48.1228 R1         2 LUT      0.094572
    206 H173       68.6868   60.9885   51.6160 T4         2 LUT      0.093752
    207 H172       68.4751   59.9637   50.1867 T4         2 LUT      0.093752
    208 H171       68.9566   61.6113   50.0674 T4         2 LUT      0.093752
    209 H163       65.7694   59.5659   51.0210 T4         2 LUT      0.093752
    210 H162       66.0112   60.5945   52.4575 T4         2 LUT      0.093752
    211 H161       64.8630   61.0590   51.0984 T4         2 LUT      0.093752
    212 HO3        64.8982   64.9281   52.9152 Q1         2 LUT      0.300121
    213 H8         67.9062   63.4832   47.5331 U7         2 LUT      0.080784
    214 H7         66.9258   60.6246   47.8437 U6         2 LUT      0.042190
    215 H42        63.8933   63.1290   50.4922 U5         2 LUT      0.145166
    216 H41        64.6586   64.6858   50.4434 U5         2 LUT      0.145166
    217 H35        75.6636   65.5272   42.8812 T3         2 LUT      0.077919
    218 H34        76.5263   64.0100   40.3780 T2         2 LUT      0.073626
    219 H32        78.6380   64.3672   39.3007 T1         2 LUT      0.092510
    220 H31        80.0123   66.9464   40.0481 U9         2 LUT      0.070048
    221 H30        80.5665   64.6499   38.0371 U8         2 LUT      0.085442
    222 H3         64.8015   62.7060   52.4636 U3         2 LUT     -0.031596
    223 H28        82.3517   64.8554   36.6318 U7         2 LUT      0.084728
    224 H27        84.1181   67.2649   36.8930 U6         2 LUT      0.087291
    225 H26        84.0148   64.7046   35.2432 Q6         2 LUT      0.075325
    226 H24        85.6099   66.9429   32.3925 Q5         2 LUT      0.094482
    227 H23        87.4126   66.6427   33.9051 U3         2 LUT     -0.024869
    228 H22        67.2190   62.6507   52.7222 U2         2 LUT      0.127376
    229 H21        67.4602   63.5524   51.1906 U2         2 LUT      0.127376
    230 H15        74.3391   63.3691   41.0447 T3         2 LUT      0.093200
    231 H14        73.4432   64.8544   43.6679 T2         2 LUT      0.068865
    232 H12        71.4809   64.4523   44.5577 T1         2 LUT      0.095507
    233 H11        70.0484   61.9317   43.7922 U9         2 LUT      0.068930
    234 H10        69.7617   63.8281   46.1342 U8         2 LUT      0.083911
    235 H1         87.1457   64.7906   31.8141 Q1         2 LUT      0.297311
@<TRIPOS>BOND
    1     6     1 1
    2     7     2 1
    3     8     3 1
    4     9     4 1
    5    11     4 1
    6    12     6 1
    7    13     9 1
    8    16     9 1
    9    25     5 1
   10    25    16 1
   11    26    10 1
   12    26    17 1
   13    27    18 1
   14    28    14 1
   15    28    19 1
   16    29    12 1
   17    30    13 1
   18    31    24 1
   19    32     1 1
   20    32    25 1
   21    33    21 1
   22    33    26 1
   23    34    22 1
   24    34    27 1
   25    35    23 1
   26    35    28 1
   27    36    12 1
   28    36    24 1
   29    37    13 1
   30    37    15 1
   31    38    31 1
   32    39    20 1
   33    39    32 1
   34    40     2 1
   35    40    33 1
   36    41     3 1
   37    41    34 1
   38    42     4 1
   39    42    35 1
   40    43    38 1
   41    44     5 1
   42    44    17 1
   43    44    39 1
   44    45    10 1
   45    45    18 1
   46    45    40 1
   47    46    19 1
   48    46    41 1
   49    47    14 1
   50    47    16 1
   51    47    42 1
   52    48    38 1
   53    49    48 1
   54    50    49 1
   55    51    50 1
   56    52    51 1
   57    53    51 1
   58    54    53 1
   59    55    54 1
   60    56    55 1
   61    57    56 1
   62    58    56 1
   63    59    58 1
   64    60    59 1
   65    61    60 1
   66    62    61 1
   67    63    61 1
   68    64    27 1
   69    64    46 1
   70    65     5 1
   71    65    10 1
   72    65    64 1
   73    65    14 1
   74    66    23 1
   75    67    23 1
   76    68    23 1
   77    69    22 1
   78    70    22 1
   79    71    22 1
   80    72    21 1
   81    73    21 1
   82    74    21 1
   83    75    20 1
   84    76    20 1
   85    77    20 1
   86    78    15 1
   87    79    15 1
   88    80    15 1
   89    81     8 1
   90    82     8 1
   91    83     8 1
   92    84     7 1
   93    85     7 1
   94    86     6 1
   95    87     6 1
   96    88     3 1
   97    89     3 1
   98    90     1 1
   99    91     1 1
  100    92    63 1
  101    93    63 1
  102    94    63 1
  103    95    62 1
  104    96    62 1
  105    97    62 1
  106    98    60 1
  107    99    60 1
  108   100    59 1
  109   101    59 1
  110   102    58 1
  111   103    58 1
  112   104    57 1
  113   105    57 1
  114   106    57 1
  115   107    55 1
  116   108    55 1
  117   109    54 1
  118   110    54 1
  119   111    53 1
  120   112    53 1
  121   113    19 1
  122   114    18 1
  123   115    17 1
  124   116     9 1
  125   117     2 1
  126   118    52 1
  127   119    52 1
  128   120    52 1
  129   121    51 1
  130   122    50 1
  131   123    50 1
  132   124    49 1
  133   125    49 1
  134   126    48 1
  135   127    48 1
  136   128    43 1
  137   129    43 1
  138   130    43 1
  139   131    39 1
  140   132    32 1
  141   133    31 1
  142   134    61 1
  143   135    56 1
  144   136    24 1
  145   137    24 1
  146   139   138 1
  147   140   139 1
  148   141   140 1
  149   142   140 1
  150   143   142 1
  151   144   138 1
  152   144   143 1
  153   145   144 1
  154   146   145 1
  155   147   146 1
  156   148   147 1
  157   149   148 1
  158   150   149 1
  159   151   150 1
  160   152   151 1
  161   153   152 1
  162   154   138 1
  163   155   138 1
  164   156   143 1
  165   157   147 1
  166   158   151 1
  167   160   159 1
  168   161   160 1
  169   162   161 1
  170   163   161 1
  171   164   163 1
  172   165   159 1
  173   165   164 1
  174   166   165 1
  175   167   166 1
  176   168   167 1
  177   169   168 1
  178   170   169 1
  179   171   170 1
  180   172   171 1
  181   173   172 1
  182   174   153 1
  183   174   173 1
  184   175   159 1
  185   176   159 1
  186   177   164 1
  187   178   168 1
  188   179   172 1
  189   180   179 1
  190   181   179 1
  191   182   179 1
  192   183   178 1
  193   184   178 1
  194   185   178 1
  195   186   177 1
  196   187   177 1
  197   188   177 1
  198   189   176 1
  199   190   176 1
  200   191   176 1
  201   192   175 1
  202   193   175 1
  203   194   175 1
  204   195   160 1
  205   196   160 1
  206   197   158 1
  207   198   158 1
  208   199   158 1
  209   200   157 1
  210   201   157 1
  211   202   157 1
  212   203   156 1
  213   204   156 1
  214   205   156 1
  215   206   155 1
  216   207   155 1
  217   208   155 1
  218   209   154 1
  219   210   154 1
  220   211   154 1
  221   212   141 1
  222   213   146 1
  223   214   145 1
  224   215   142 1
  225   216   142 1
  226   217   174 1
  227   218   173 1
  228   219   171 1
  229   220   170 1
  230   221   169 1
  231   222   140 1
  232   223   167 1
  233   224   166 1
  234   225   165 1
  235   226   163 1
  236   227   161 1
  237   228   139 1
  238   229   139 1
  239   230   153 1
  240   231   152 1
  241   232   150 1
  242   233   149 1
  243   234   148 1
  244   235   162 1
  245   65    153 1
  246   65    174 1
@<TRIPOS>SUBSTRUCTURE
      1 CLA               1 ****               0 ****  **** 
      2 LUT             138 ****               0 ****  **** 
