@<TRIPOS>MOLECULE
Cpptraj generated mol2 file.
  235   246     2     0     0
SMALL
USER_CHARGES


@<TRIPOS>ATOM
      1 CAA        80.2470   58.9786   34.2669 a2         1 CLA     -0.055900
      2 CAB        79.8960   62.4738   43.5174 c8         1 CLA     -0.148500
      3 CAC        73.0534   58.4789   42.7908 a2         1 CLA     -0.012600
      4 CAD        75.8910   56.6651   35.2374 ck         1 CLA      0.398800
      5 NA         79.0208   59.4495   37.6747 ns         1 CLA     -0.225500
      6 CBA        81.5853   58.9158   33.5394 a2         1 CLA     -0.135000
      7 CBB        81.0353   62.8749   44.0914 c0         1 CLA     -0.395200
      8 CBC        72.8681   57.0153   42.6069 a3         1 CLA     -0.037700
      9 CBD        77.3318   57.1728   34.9590 a1         1 CLA     -0.053900
     10 NB         78.9042   60.6652   40.4536 nm         1 CLA     -0.295700
     11 OBD        75.3966   55.8494   34.4403 o2         1 CLA     -0.494600
     12 CGA        81.9651   57.4478   33.2711 c4         1 CLA      0.827000
     13 CGD        78.2549   55.9655   34.6788 c4         1 CLA      0.655300
     14 ND         76.2953   58.4541   38.1834 nm         1 CLA     -0.291600
     15 CED        79.4743   54.3281   35.9919 a3         1 CLA      0.005400
     16 CHA        77.6916   57.9575   36.1973 cs         1 CLA     -0.123800
     17 CHB        80.7519   60.6836   38.8998 aa         1 CLA     -0.291900
     18 CHC        77.5856   60.7198   42.5212 aa         1 CLA     -0.090400
     19 CHD        74.4598   58.2470   39.7608 aa         1 CLA     -0.052000
     20 CMA        82.4144   58.6056   37.3293 a3         1 CLA     -0.230700
     21 CMB        82.0829   62.4909   41.0085 a3         1 CLA     -0.180800
     22 CMC        75.1518   60.1216   44.4427 a3         1 CLA     -0.134000
     23 CMD        73.1305   56.5966   37.3974 a3         1 CLA     -0.141100
     24 C1         83.0364   55.4738   34.2342 a2         1 CLA      0.023000
     25 C1A        78.9138   58.7229   36.5053 ac         1 CLA     -0.015100
     26 C1B        80.1874   61.0525   40.1148 cr         1 CLA      0.054700
     27 C1C        76.4155   60.0653   42.1195 cn         1 CLA     -0.005600
     28 C1D        75.0449   58.0724   38.5045 ap         1 CLA     -0.047300
     29 O1A        81.8211   56.9157   32.2229 o2         1 CLA     -0.610800
     30 O1D        79.0686   55.8876   33.7465 o2         1 CLA     -0.558200
     31 C2         83.6328   55.2426   35.5848 c8         1 CLA     -0.325100
     32 C2A        80.2285   58.5808   35.7339 a1         1 CLA      0.098600
     33 C2B        80.8052   61.6874   41.1746 cb         1 CLA      0.088500
     34 C2C        75.3534   59.7342   43.0074 cb         1 CLA      0.053700
     35 C2D        74.4457   57.2782   37.4638 cb         1 CLA      0.058900
     36 O2A        82.5770   56.8798   34.3754 o1         1 CLA     -0.437200
     37 O2D        78.4013   55.3115   35.8055 o1         1 CLA     -0.357600
     38 C3         84.8687   54.6635   35.7895 c5         1 CLA      0.031200
     39 C3A        81.1900   59.4129   36.7437 a1         1 CLA      0.166800
     40 C3B        79.8554   61.7900   42.2546 cb         1 CLA      0.035000
     41 C3C        74.3732   59.0051   42.1566 cb         1 CLA     -0.089900
     42 C3D        75.4481   57.1816   36.5192 cb         1 CLA     -0.035900
     43 C4         84.9532   53.2241   36.1490 a3         1 CLA     -0.053300
     44 C4A        80.2809   59.9061   37.8377 ac         1 CLA      0.001800
     45 C4B        78.7182   61.0484   41.7840 cn         1 CLA     -0.020900
     46 C4C        74.9230   58.9408   40.8639 cr         1 CLA     -0.044400
     47 C4D        76.5628   57.9099   37.0059 c6         1 CLA     -0.046000
     48 C5         86.1213   55.4794   35.8842 a2         1 CLA     -0.070400
     49 C6         86.3020   56.3978   37.0936 a2         1 CLA      0.043900
     50 C7         87.7790   56.8714   37.1695 a2         1 CLA     -0.150000
     51 C8         88.3020   57.4931   38.4575 a1         1 CLA      0.064200
     52 C9         89.7508   57.9985   38.1615 a3         1 CLA     -0.259300
     53 C10        88.1548   56.6369   39.7910 a2         1 CLA     -0.071900
     54 C11        88.5671   57.4407   41.0443 a2         1 CLA      0.014500
     55 C12        88.1168   56.7632   42.4179 a2         1 CLA     -0.112100
     56 C13        88.4232   57.7532   43.5807 a1         1 CLA      0.089200
     57 C14        89.8725   58.0817   43.9445 a3         1 CLA     -0.239100
     58 C15        87.6263   57.2894   44.9339 a2         1 CLA     -0.102200
     59 C16        87.3255   58.4349   45.8944 a2         1 CLA      0.023900
     60 C17        86.5586   57.9200   47.0890 a2         1 CLA     -0.105700
     61 C18        86.4284   58.7813   48.3206 a1         1 CLA      0.206800
     62 C19        85.3246   59.9081   48.2418 a3         1 CLA     -0.280100
     63 C20        86.1043   57.9155   49.5690 a3         1 CLA     -0.280100
     64 NC         76.1686   59.5798   40.9155 nx         1 CLA     -0.309200
     65 MG         77.5826   59.7472   39.2574 mg         1 CLA      0.895000
     66 HMD3       72.9311   56.0198   38.2902 dc         1 CLA      0.064300
     67 HMD2       72.3501   57.4256   37.2871 dc         1 CLA      0.064300
     68 HMD1       73.1373   55.9652   36.5031 dc         1 CLA      0.064300
     69 HMC3       74.1421   60.4731   44.7784 dc         1 CLA      0.052100
     70 HMC2       75.3238   59.2305   45.1212 dc         1 CLA      0.052100
     71 HMC1       75.7800   60.9598   44.7464 dc         1 CLA      0.052100
     72 HMB3       83.0387   61.9290   41.2019 dc         1 CLA      0.063600
     73 HMB2       82.0793   63.0454   40.0793 dc         1 CLA      0.063600
     74 HMB1       82.0847   63.2625   41.6987 dc         1 CLA      0.063600
     75 HMA3       82.1160   57.6093   37.7003 dc         1 CLA      0.058300
     76 HMA2       83.0625   58.3979   36.4969 dc         1 CLA      0.058300
     77 HMA1       82.8475   59.1436   38.1447 dc         1 CLA      0.058300
     78 HED3       80.4078   54.8222   35.8995 dc         1 CLA      0.079300
     79 HED2       79.2382   53.9379   36.9208 dc         1 CLA      0.079300
     80 HED1       79.4460   53.6067   35.1144 dc         1 CLA      0.079300
     81 HBC3       73.8200   56.4666   42.7112 dc         1 CLA      0.016300
     82 HBC2       72.2854   56.6451   43.4259 dc         1 CLA      0.016300
     83 HBC1       72.4287   56.7493   41.6757 dc         1 CLA      0.016300
     84 HBB2       81.1041   63.4162   45.1404 da         1 CLA      0.183000
     85 HBB1       81.9973   62.6414   43.5893 da         1 CLA      0.183000
     86 HBA2       81.5258   59.2663   32.5336 dc         1 CLA      0.029400
     87 HBA1       82.3848   59.5577   33.9176 dc         1 CLA      0.029400
     88 HAC2       73.1567   58.6737   43.8568 dc         1 CLA      0.029300
     89 HAC1       72.2017   59.0695   42.5557 dc         1 CLA      0.029300
     90 HAA2       79.5572   58.3729   33.7697 dc         1 CLA      0.028700
     91 HAA1       79.8701   59.9932   34.1211 dc         1 CLA      0.028700
     92 H203       85.9479   58.5473   50.4006 dc         1 CLA      0.065600
     93 H202       85.2875   57.2379   49.5272 dc         1 CLA      0.065600
     94 H201       86.9403   57.2286   49.8124 dc         1 CLA      0.065600
     95 H193       85.4032   60.5563   49.1076 dc         1 CLA      0.065600
     96 H192       85.5741   60.5486   47.3951 dc         1 CLA      0.065600
     97 H191       84.3717   59.4681   48.0509 dc         1 CLA      0.065600
     98 H172       85.5676   57.5561   46.7449 dc         1 CLA      0.027600
     99 H171       87.2226   57.1566   47.5048 dc         1 CLA      0.027600
    100 H162       88.2206   58.9474   46.1782 dc         1 CLA      0.002900
    101 H161       86.7391   59.1620   45.3384 dc         1 CLA      0.002900
    102 H152       86.6545   56.9823   44.7143 dc         1 CLA      0.029100
    103 H151       88.1491   56.4736   45.4882 dc         1 CLA      0.029100
    104 H143       89.9221   58.7838   44.7646 dc         1 CLA      0.063600
    105 H142       90.4372   57.1299   44.0832 dc         1 CLA      0.063600
    106 H141       90.3515   58.5184   43.0529 dc         1 CLA      0.063600
    107 H122       87.0843   56.5483   42.4446 dc         1 CLA      0.032500
    108 H121       88.5897   55.7945   42.4567 dc         1 CLA      0.032500
    109 H112       89.6441   57.4269   40.9687 dc         1 CLA      0.006600
    110 H111       88.1163   58.3979   40.9672 dc         1 CLA      0.006600
    111 H102       87.1052   56.3464   39.8342 dc         1 CLA      0.024100
    112 H101       88.5582   55.6135   39.6396 dc         1 CLA      0.024100
    113 HHD        73.4984   57.7678   39.9276 da         1 CLA      0.174300
    114 HHC        77.6411   61.0515   43.5544 da         1 CLA      0.136800
    115 HHB        81.7985   61.0582   38.8698 da         1 CLA      0.138300
    116 HBD        77.1997   57.7340   34.0756 dc         1 CLA      0.107700
    117 HAB        78.9855   62.7054   44.0717 da         1 CLA      0.155200
    118 H93        90.4456   57.1850   38.0817 dc         1 CLA      0.069500
    119 H92        89.9055   58.5531   37.2505 dc         1 CLA      0.069500
    120 H91        90.0785   58.6415   38.9614 dc         1 CLA      0.069500
    121 H8         87.7845   58.4021   38.6102 dc         1 CLA      0.029300
    122 H72        88.4146   56.0379   37.0274 dc         1 CLA      0.044400
    123 H71        87.8212   57.6003   36.4084 dc         1 CLA      0.044400
    124 H62        85.6806   57.3037   36.9075 dc         1 CLA      0.015600
    125 H61        86.0879   55.8285   37.9748 dc         1 CLA      0.015600
    126 H52        86.9874   54.8598   35.7089 dc         1 CLA      0.033200
    127 H51        86.1256   56.1585   35.0153 dc         1 CLA      0.033200
    128 H43        84.0841   52.8068   36.6794 dc         1 CLA      0.037000
    129 H42        85.0744   52.6171   35.2368 dc         1 CLA      0.037000
    130 H41        85.8350   53.0007   36.7590 dc         1 CLA      0.037000
    131 H3A        81.7577   60.2225   36.3023 dc         1 CLA      0.041100
    132 H2A        80.4830   57.4686   35.7075 dc         1 CLA      0.083100
    133 H2         83.1148   55.5528   36.4660 da         1 CLA      0.180900
    134 H18        87.4529   59.2984   48.4499 dc         1 CLA     -0.003900
    135 H13        87.9374   58.6670   43.3333 dc         1 CLA      0.019700
    136 H12        82.2777   54.7497   33.9193 dc         1 CLA      0.120400
    137 H11        83.7909   55.4474   33.4220 dc         1 CLA      0.120400
    138 C1         69.2504   62.7248   49.8100 Z1         2 LUT      0.509236
    139 C2         68.9828   64.0895   50.6080 Z2         2 LUT     -0.434695
    140 C3         67.6672   64.6106   50.6929 Z3         2 LUT      0.437453
    141 O3         67.7541   65.9426   51.0699 S1         2 LUT     -0.547129
    142 C4         66.9198   64.3450   49.3004 Z4         2 LUT     -0.468603
    143 C5         67.6862   63.7917   48.1505 Z5         2 LUT      0.279246
    144 C6         68.7560   62.9722   48.3926 Z6         2 LUT     -0.305473
    145 C7         69.5661   62.5244   47.2277 Z7         2 LUT      0.069402
    146 C8         70.8682   62.4130   46.7846 Z8         2 LUT     -0.191631
    147 C9         71.2929   62.1273   45.3430 Z9         2 LUT      0.196698
    148 C10        72.5139   62.6819   44.9776 Y1         2 LUT     -0.208611
    149 C11        73.1644   62.6962   43.7047 Y2         2 LUT      0.030784
    150 C12        74.3497   63.3246   43.5543 Y3         2 LUT     -0.220316
    151 C13        75.2606   63.3276   42.3549 Y4         2 LUT      0.215937
    152 C14        76.3794   64.1246   42.5146 Y5         2 LUT     -0.185793
    153 C15        77.5065   64.3540   41.6084 Y6         2 LUT     -0.057835
    154 C16        68.4077   61.6163   50.4180 Y7         2 LUT     -0.405615
    155 C17        70.7578   62.3928   50.0048 Y7         2 LUT     -0.405615
    156 C18        67.2981   64.4671   46.8255 Y9         2 LUT     -0.369639
    157 C19        70.4328   61.3157   44.3999 W1         2 LUT     -0.333362
    158 C20        74.7960   62.6516   41.1074 W2         2 LUT     -0.323439
    159 C21        88.7888   66.2283   35.6615 Z1         2 LUT      0.406104
    160 C22        89.5115   65.3796   34.5592 Z2         2 LUT     -0.404965
    161 C23        89.6907   66.1766   33.2939 Z3         2 LUT      0.391255
    162 O23        90.3133   65.3453   32.4285 S1         2 LUT     -0.528210
    163 C24        88.3850   66.8738   32.9171 W6         2 LUT     -0.258361
    164 C25        87.3110   67.0997   33.7100 Z5         2 LUT      0.133546
    165 C26        87.3867   66.5681   35.1127 W8         2 LUT     -0.147008
    166 C27        86.4966   67.2924   36.1252 Z7         2 LUT      0.023843
    167 C28        85.3479   66.8125   36.6333 Z8         2 LUT     -0.216987
    168 C29        84.5675   67.4159   37.7724 Z9         2 LUT      0.206524
    169 C30        83.5050   66.6715   38.2307 Y1         2 LUT     -0.215556
    170 C31        82.6391   67.0566   39.3816 Y2         2 LUT      0.025142
    171 C32        81.5880   66.2967   39.8003 Y3         2 LUT     -0.212209
    172 C33        80.6197   66.4096   40.8183 Y4         2 LUT      0.240937
    173 C34        79.5881   65.4742   40.7203 Y5         2 LUT     -0.218862
    174 C35        78.4990   65.3027   41.6557 Y6         2 LUT     -0.023547
    175 C36        89.5957   67.4720   36.0375 Y7         2 LUT     -0.393485
    176 C37        88.7354   65.3612   36.9310 Y7         2 LUT     -0.393485
    177 C38        86.1205   67.8578   33.2878 Y9         2 LUT     -0.387526
    178 C39        84.8982   68.7871   38.2272 W1         2 LUT     -0.322618
    179 C40        80.6965   67.5181   41.8692 W2         2 LUT     -0.358472
    180 H403       81.7264   67.6042   42.2567 R7         2 LUT      0.097720
    181 H402       80.4054   68.4978   41.4380 R7         2 LUT      0.097720
    182 H401       79.9709   67.4695   42.6804 R7         2 LUT      0.097720
    183 H393       85.5194   69.3093   37.4909 R4         2 LUT      0.082505
    184 H392       84.0032   69.3938   38.2325 R4         2 LUT      0.082505
    185 H391       85.3772   68.8526   39.1430 R4         2 LUT      0.082505
    186 H383       86.3473   68.2618   32.2493 R1         2 LUT      0.104030
    187 H382       85.2115   67.2260   33.1564 R1         2 LUT      0.104030
    188 H381       85.9119   68.7816   33.8193 R1         2 LUT      0.104030
    189 H373       89.7295   65.3522   37.3831 T4         2 LUT      0.089537
    190 H372       88.0175   65.6288   37.7331 T4         2 LUT      0.089537
    191 H371       88.5478   64.2932   36.6866 T4         2 LUT      0.089537
    192 H363       89.0127   68.0200   36.7595 T4         2 LUT      0.089537
    193 H362       90.6243   67.3010   36.3824 T4         2 LUT      0.089537
    194 H361       89.6304   68.1707   35.1603 T4         2 LUT      0.089537
    195 H222       90.4374   65.0127   34.8729 U2         2 LUT      0.127376
    196 H221       88.9058   64.4959   34.2501 U2         2 LUT      0.127376
    197 H203       75.6017   62.5235   40.4140 R7         2 LUT      0.087068
    198 H202       74.3675   61.6450   41.2310 R7         2 LUT      0.087068
    199 H201       74.0132   63.0606   40.4883 R7         2 LUT      0.087068
    200 H193       70.9319   60.6689   43.7228 R4         2 LUT      0.089716
    201 H192       69.7557   60.6245   44.9175 R4         2 LUT      0.089716
    202 H191       69.7968   61.9094   43.7196 R4         2 LUT      0.089716
    203 H183       67.8141   65.3742   46.7459 R1         2 LUT      0.094572
    204 H182       67.5597   63.8642   45.8924 R1         2 LUT      0.094572
    205 H181       66.1885   64.6410   46.7720 R1         2 LUT      0.094572
    206 H173       71.4326   63.0795   49.5137 T4         2 LUT      0.093752
    207 H172       70.9266   62.4609   51.1073 T4         2 LUT      0.093752
    208 H171       71.0314   61.4658   49.5487 T4         2 LUT      0.093752
    209 H163       68.9333   60.6723   50.2115 T4         2 LUT      0.093752
    210 H162       68.2802   61.7229   51.4961 T4         2 LUT      0.093752
    211 H161       67.4498   61.5512   49.8418 T4         2 LUT      0.093752
    212 HO3        67.3017   66.1362   51.9218 Q1         2 LUT      0.300121
    213 H8         71.5822   62.7651   47.4074 U7         2 LUT      0.080784
    214 H7         68.8741   62.2663   46.5032 U6         2 LUT      0.042190
    215 H42        66.2263   63.5163   49.5686 U5         2 LUT      0.145166
    216 H41        66.2288   65.1676   49.0893 U5         2 LUT      0.145166
    217 H35        78.4774   66.0164   42.4715 T3         2 LUT      0.077919
    218 H34        79.5828   64.7389   39.8886 T2         2 LUT      0.073626
    219 H32        81.3348   65.5037   39.0317 T1         2 LUT      0.092510
    220 H31        82.7415   67.9906   39.9028 U9         2 LUT      0.070048
    221 H30        83.4060   65.6468   37.8335 U8         2 LUT      0.085442
    222 H3         67.0917   64.0368   51.3986 U3         2 LUT     -0.031596
    223 H28        85.1422   65.7799   36.3665 U7         2 LUT      0.084728
    224 H27        86.7219   68.2665   36.4408 U6         2 LUT      0.087291
    225 H26        86.9009   65.6924   34.8778 Q6         2 LUT      0.075325
    226 H24        88.4324   67.4999   31.9959 Q5         2 LUT      0.094482
    227 H23        90.2570   67.0654   33.4439 U3         2 LUT     -0.024869
    228 H22        69.3471   64.0439   51.5656 U2         2 LUT      0.127376
    229 H21        69.6134   64.9253   50.2937 U2         2 LUT      0.127376
    230 H15        77.5228   63.7148   40.6993 T3         2 LUT      0.093200
    231 H14        76.5570   64.8287   43.3776 T2         2 LUT      0.068865
    232 H12        74.7844   63.8379   44.4215 T1         2 LUT      0.095507
    233 H11        72.6891   62.1879   42.9392 U9         2 LUT      0.068930
    234 H10        73.0179   63.1935   45.7407 U8         2 LUT      0.083911
    235 H1         90.4482   65.7569   31.5546 Q1         2 LUT      0.297311
@<TRIPOS>BOND
    1     6     1 1
    2     7     2 1
    3     8     3 1
    4     9     4 1
    5    11     4 1
    6    12     6 1
    7    13     9 1
    8    16     9 1
    9    25     5 1
   10    25    16 1
   11    26    10 1
   12    26    17 1
   13    27    18 1
   14    28    14 1
   15    28    19 1
   16    29    12 1
   17    30    13 1
   18    31    24 1
   19    32     1 1
   20    32    25 1
   21    33    21 1
   22    33    26 1
   23    34    22 1
   24    34    27 1
   25    35    23 1
   26    35    28 1
   27    36    12 1
   28    36    24 1
   29    37    13 1
   30    37    15 1
   31    38    31 1
   32    39    20 1
   33    39    32 1
   34    40     2 1
   35    40    33 1
   36    41     3 1
   37    41    34 1
   38    42     4 1
   39    42    35 1
   40    43    38 1
   41    44     5 1
   42    44    17 1
   43    44    39 1
   44    45    10 1
   45    45    18 1
   46    45    40 1
   47    46    19 1
   48    46    41 1
   49    47    14 1
   50    47    16 1
   51    47    42 1
   52    48    38 1
   53    49    48 1
   54    50    49 1
   55    51    50 1
   56    52    51 1
   57    53    51 1
   58    54    53 1
   59    55    54 1
   60    56    55 1
   61    57    56 1
   62    58    56 1
   63    59    58 1
   64    60    59 1
   65    61    60 1
   66    62    61 1
   67    63    61 1
   68    64    27 1
   69    64    46 1
   70    65     5 1
   71    65    10 1
   72    65    64 1
   73    65    14 1
   74    66    23 1
   75    67    23 1
   76    68    23 1
   77    69    22 1
   78    70    22 1
   79    71    22 1
   80    72    21 1
   81    73    21 1
   82    74    21 1
   83    75    20 1
   84    76    20 1
   85    77    20 1
   86    78    15 1
   87    79    15 1
   88    80    15 1
   89    81     8 1
   90    82     8 1
   91    83     8 1
   92    84     7 1
   93    85     7 1
   94    86     6 1
   95    87     6 1
   96    88     3 1
   97    89     3 1
   98    90     1 1
   99    91     1 1
  100    92    63 1
  101    93    63 1
  102    94    63 1
  103    95    62 1
  104    96    62 1
  105    97    62 1
  106    98    60 1
  107    99    60 1
  108   100    59 1
  109   101    59 1
  110   102    58 1
  111   103    58 1
  112   104    57 1
  113   105    57 1
  114   106    57 1
  115   107    55 1
  116   108    55 1
  117   109    54 1
  118   110    54 1
  119   111    53 1
  120   112    53 1
  121   113    19 1
  122   114    18 1
  123   115    17 1
  124   116     9 1
  125   117     2 1
  126   118    52 1
  127   119    52 1
  128   120    52 1
  129   121    51 1
  130   122    50 1
  131   123    50 1
  132   124    49 1
  133   125    49 1
  134   126    48 1
  135   127    48 1
  136   128    43 1
  137   129    43 1
  138   130    43 1
  139   131    39 1
  140   132    32 1
  141   133    31 1
  142   134    61 1
  143   135    56 1
  144   136    24 1
  145   137    24 1
  146   139   138 1
  147   140   139 1
  148   141   140 1
  149   142   140 1
  150   143   142 1
  151   144   138 1
  152   144   143 1
  153   145   144 1
  154   146   145 1
  155   147   146 1
  156   148   147 1
  157   149   148 1
  158   150   149 1
  159   151   150 1
  160   152   151 1
  161   153   152 1
  162   154   138 1
  163   155   138 1
  164   156   143 1
  165   157   147 1
  166   158   151 1
  167   160   159 1
  168   161   160 1
  169   162   161 1
  170   163   161 1
  171   164   163 1
  172   165   159 1
  173   165   164 1
  174   166   165 1
  175   167   166 1
  176   168   167 1
  177   169   168 1
  178   170   169 1
  179   171   170 1
  180   172   171 1
  181   173   172 1
  182   174   153 1
  183   174   173 1
  184   175   159 1
  185   176   159 1
  186   177   164 1
  187   178   168 1
  188   179   172 1
  189   180   179 1
  190   181   179 1
  191   182   179 1
  192   183   178 1
  193   184   178 1
  194   185   178 1
  195   186   177 1
  196   187   177 1
  197   188   177 1
  198   189   176 1
  199   190   176 1
  200   191   176 1
  201   192   175 1
  202   193   175 1
  203   194   175 1
  204   195   160 1
  205   196   160 1
  206   197   158 1
  207   198   158 1
  208   199   158 1
  209   200   157 1
  210   201   157 1
  211   202   157 1
  212   203   156 1
  213   204   156 1
  214   205   156 1
  215   206   155 1
  216   207   155 1
  217   208   155 1
  218   209   154 1
  219   210   154 1
  220   211   154 1
  221   212   141 1
  222   213   146 1
  223   214   145 1
  224   215   142 1
  225   216   142 1
  226   217   174 1
  227   218   173 1
  228   219   171 1
  229   220   170 1
  230   221   169 1
  231   222   140 1
  232   223   167 1
  233   224   166 1
  234   225   165 1
  235   226   163 1
  236   227   161 1
  237   228   139 1
  238   229   139 1
  239   230   153 1
  240   231   152 1
  241   232   150 1
  242   233   149 1
  243   234   148 1
  244   235   162 1
  245   65    153 1
  246   65    174 1
@<TRIPOS>SUBSTRUCTURE
      1 CLA               1 ****               0 ****  **** 
      2 LUT             138 ****               0 ****  **** 
