@<TRIPOS>MOLECULE
Cpptraj generated mol2 file.
  235   246     2     0     0
SMALL
USER_CHARGES


@<TRIPOS>ATOM
      1 CAA        78.1944   57.1059   33.7442 a2         1 CLA     -0.055900
      2 CAB        79.1334   61.7251   42.1974 c8         1 CLA     -0.148500
      3 CAC        71.7639   58.4040   42.5674 a2         1 CLA     -0.012600
      4 CAD        73.8317   55.1278   35.4165 ck         1 CLA      0.398800
      5 NA         77.2643   58.0457   37.1175 ns         1 CLA     -0.225500
      6 CBA        79.4443   56.6372   32.9857 a2         1 CLA     -0.135000
      7 CBB        80.3871   61.6527   42.6838 c0         1 CLA     -0.395200
      8 CBC        71.6499   56.9314   43.1129 a3         1 CLA     -0.037700
      9 CBD        75.2725   55.3192   35.0172 a1         1 CLA     -0.053900
     10 NB         77.4608   59.9658   39.3252 nm         1 CLA     -0.295700
     11 OBD        73.0741   54.3815   34.8483 o2         1 CLA     -0.494600
     12 CGA        79.5383   55.1300   33.0270 c4         1 CLA      0.827000
     13 CGD        76.0704   54.0514   35.2257 c4         1 CLA      0.655300
     14 ND         74.5639   57.3778   37.9683 nm         1 CLA     -0.291600
     15 CED        76.8010   52.3864   36.6608 a3         1 CLA      0.005400
     16 CHA        75.7247   56.4536   35.9613 cs         1 CLA     -0.123800
     17 CHB        79.2176   59.3873   37.7625 aa         1 CLA     -0.291900
     18 CHC        76.4095   60.3270   41.5180 aa         1 CLA     -0.090400
     19 CHD        72.9241   57.5376   39.7127 aa         1 CLA     -0.052000
     20 CMA        80.5496   56.8058   36.6376 a3         1 CLA     -0.230700
     21 CMB        80.9767   61.3078   39.4813 a3         1 CLA     -0.180800
     22 CMC        74.1756   60.1749   43.8276 a3         1 CLA     -0.134000
     23 CMD        71.2336   55.6342   37.5341 a3         1 CLA     -0.141100
     24 C1         80.3976   53.2289   34.2921 a2         1 CLA      0.023000
     25 C1A        76.9585   57.1912   36.0840 ac         1 CLA     -0.015100
     26 C1B        78.7150   60.0682   38.8651 cr         1 CLA      0.054700
     27 C1C        75.1506   59.6858   41.4603 cn         1 CLA     -0.005600
     28 C1D        73.4097   56.9622   38.4829 ap         1 CLA     -0.047300
     29 O1A        78.9915   54.3107   32.2788 o2         1 CLA     -0.610800
     30 O1D        76.7931   53.4986   34.3611 o2         1 CLA     -0.558200
     31 C2         81.3279   53.0500   35.5057 c8         1 CLA     -0.325100
     32 C2A        78.2172   56.8647   35.3115 a1         1 CLA      0.098600
     33 C2B        79.5537   60.9310   39.7867 cb         1 CLA      0.088500
     34 C2C        74.0815   59.5637   42.4559 cb         1 CLA      0.053700
     35 C2D        72.6385   56.1604   37.5642 cb         1 CLA      0.058900
     36 O2A        80.2340   54.6898   34.1736 o1         1 CLA     -0.437200
     37 O2D        76.0917   53.6501   36.5537 o1         1 CLA     -0.357600
     38 C3         82.0968   51.9399   35.8024 c5         1 CLA      0.031200
     39 C3A        79.3450   57.5823   35.9898 a1         1 CLA      0.166800
     40 C3B        78.7645   61.1017   40.9586 cb         1 CLA      0.035000
     41 C3C        73.0783   58.7218   41.8998 cb         1 CLA     -0.089900
     42 C3D        73.5591   55.8853   36.6160 cb         1 CLA     -0.035900
     43 C4         81.5292   50.6515   36.5181 a3         1 CLA     -0.053300
     44 C4A        78.5633   58.3929   37.0047 ac         1 CLA      0.001800
     45 C4B        77.4912   60.4876   40.6374 cn         1 CLA     -0.020900
     46 C4C        73.6267   58.4443   40.5713 cr         1 CLA     -0.044400
     47 C4D        74.6930   56.5903   36.9005 c6         1 CLA     -0.046000
     48 C5         83.5063   51.7425   35.3776 a2         1 CLA     -0.070400
     49 C6         84.4896   52.9284   35.5576 a2         1 CLA      0.043900
     50 C7         84.6716   53.2737   37.0737 a2         1 CLA     -0.150000
     51 C8         85.5334   54.5699   37.2529 a1         1 CLA      0.064200
     52 C9         86.9975   54.3567   36.9584 a3         1 CLA     -0.259300
     53 C10        85.3886   55.0381   38.7631 a2         1 CLA     -0.071900
     54 C11        83.9563   55.4852   39.2403 a2         1 CLA      0.014500
     55 C12        83.9220   56.0757   40.7067 a2         1 CLA     -0.112100
     56 C13        82.5560   56.4666   41.2631 a1         1 CLA      0.089200
     57 C14        81.9762   57.7396   40.5649 a3         1 CLA     -0.239100
     58 C15        82.6047   56.7040   42.8144 a2         1 CLA     -0.102200
     59 C16        83.2124   58.0072   43.3100 a2         1 CLA      0.023900
     60 C17        83.4463   57.9970   44.8242 a2         1 CLA     -0.105700
     61 C18        83.9517   59.4016   45.3287 a1         1 CLA      0.206800
     62 C19        82.9225   60.4489   45.1602 a3         1 CLA     -0.280100
     63 C20        84.3658   59.1993   46.8225 a3         1 CLA     -0.280100
     64 NC         74.8239   58.9985   40.3843 nx         1 CLA     -0.309200
     65 MG         75.9995   58.7713   38.6373 mg         1 CLA      0.895000
     66 HMD3       70.6213   56.4715   37.6211 dc         1 CLA      0.064300
     67 HMD2       71.1389   55.2045   36.5342 dc         1 CLA      0.064300
     68 HMD1       70.9740   54.7238   38.1309 dc         1 CLA      0.064300
     69 HMC3       74.6955   59.3983   44.4601 dc         1 CLA      0.052100
     70 HMC2       74.8921   61.0231   43.8092 dc         1 CLA      0.052100
     71 HMC1       73.2115   60.4116   44.2141 dc         1 CLA      0.052100
     72 HMB3       80.9991   61.8617   38.4640 dc         1 CLA      0.063600
     73 HMB2       81.2162   62.0993   40.2024 dc         1 CLA      0.063600
     74 HMB1       81.7224   60.4419   39.4918 dc         1 CLA      0.063600
     75 HMA3       80.1693   55.9362   37.2176 dc         1 CLA      0.058300
     76 HMA2       81.0949   56.3196   35.8632 dc         1 CLA      0.058300
     77 HMA1       81.1311   57.3561   37.3827 dc         1 CLA      0.058300
     78 HED3       76.3634   51.7306   35.8811 dc         1 CLA      0.079300
     79 HED2       77.9555   52.3502   36.5077 dc         1 CLA      0.079300
     80 HED1       76.5270   52.0529   37.6948 dc         1 CLA      0.079300
     81 HBC3       70.6106   56.6408   43.0589 dc         1 CLA      0.016300
     82 HBC2       72.1115   56.1626   42.5480 dc         1 CLA      0.016300
     83 HBC1       72.0223   56.8959   44.1046 dc         1 CLA      0.016300
     84 HBB2       80.7089   62.1560   43.6250 da         1 CLA      0.183000
     85 HBB1       81.1573   61.1035   42.1466 da         1 CLA      0.183000
     86 HBA2       79.2726   56.9504   31.9162 dc         1 CLA      0.029400
     87 HBA1       80.4117   57.0542   33.2559 dc         1 CLA      0.029400
     88 HAC2       71.6373   59.0657   43.4114 dc         1 CLA      0.029300
     89 HAC1       70.8600   58.4039   41.9138 dc         1 CLA      0.029300
     90 HAA2       77.3295   56.5656   33.3671 dc         1 CLA      0.028700
     91 HAA1       78.0459   58.2042   33.6247 dc         1 CLA      0.028700
     92 H203       83.5737   58.8946   47.4813 dc         1 CLA      0.065600
     93 H202       85.2129   58.4591   46.8825 dc         1 CLA      0.065600
     94 H201       84.7487   60.1222   47.2653 dc         1 CLA      0.065600
     95 H193       82.6234   60.7087   44.1304 dc         1 CLA      0.065600
     96 H192       82.0246   60.2260   45.7251 dc         1 CLA      0.065600
     97 H191       83.2312   61.3476   45.5870 dc         1 CLA      0.065600
     98 H172       82.4738   57.9274   45.3508 dc         1 CLA      0.027600
     99 H171       84.2505   57.2835   45.0961 dc         1 CLA      0.027600
    100 H162       84.1927   58.1409   42.7850 dc         1 CLA      0.002900
    101 H161       82.5125   58.7560   42.8872 dc         1 CLA      0.002900
    102 H152       81.6238   56.6746   43.3216 dc         1 CLA      0.029100
    103 H151       83.1504   55.8761   43.2942 dc         1 CLA      0.029100
    104 H143       81.6676   57.5200   39.5195 dc         1 CLA      0.063600
    105 H142       81.0432   58.1896   41.0231 dc         1 CLA      0.063600
    106 H141       82.7481   58.4868   40.6503 dc         1 CLA      0.063600
    107 H122       84.4790   55.4330   41.4056 dc         1 CLA      0.032500
    108 H121       84.5206   57.0072   40.5763 dc         1 CLA      0.032500
    109 H112       83.6021   56.3208   38.6025 dc         1 CLA      0.006600
    110 H111       83.3056   54.6576   39.2087 dc         1 CLA      0.006600
    111 H102       85.8414   54.1816   39.2848 dc         1 CLA      0.024100
    112 H101       86.0420   55.9362   38.7955 dc         1 CLA      0.024100
    113 HHD        71.9163   57.1847   40.0238 da         1 CLA      0.174300
    114 HHC        76.6111   60.8234   42.4894 da         1 CLA      0.136800
    115 HHB        80.2133   59.5374   37.4565 da         1 CLA      0.138300
    116 HBD        75.4204   55.7170   34.0409 dc         1 CLA      0.107700
    117 HAB        78.4296   62.3223   42.7611 da         1 CLA      0.155200
    118 H93        87.1597   53.8511   36.0561 dc         1 CLA      0.069500
    119 H92        87.5448   55.2786   36.8117 dc         1 CLA      0.069500
    120 H91        87.4818   53.8644   37.7940 dc         1 CLA      0.069500
    121 H8         85.1464   55.3079   36.5684 dc         1 CLA      0.029300
    122 H72        83.6768   53.3682   37.5084 dc         1 CLA      0.044400
    123 H71        85.0734   52.4098   37.6202 dc         1 CLA      0.044400
    124 H62        85.3839   52.5747   35.1302 dc         1 CLA      0.015600
    125 H61        84.0627   53.7457   34.9637 dc         1 CLA      0.015600
    126 H52        83.9550   50.9049   35.7914 dc         1 CLA      0.033200
    127 H51        83.3878   51.6288   34.3516 dc         1 CLA      0.033200
    128 H43        81.8186   49.7361   35.9993 dc         1 CLA      0.037000
    129 H42        81.9006   50.6151   37.5260 dc         1 CLA      0.037000
    130 H41        80.3976   50.7058   36.5096 dc         1 CLA      0.037000
    131 H3A        79.7359   58.3824   35.3463 dc         1 CLA      0.041100
    132 H2A        78.3948   55.8280   35.2776 dc         1 CLA      0.083100
    133 H2         81.3396   53.8957   36.1928 da         1 CLA      0.180900
    134 H18        84.7560   59.7899   44.6888 dc         1 CLA     -0.003900
    135 H13        81.8412   55.6270   41.1210 dc         1 CLA      0.019700
    136 H12        79.4841   52.6135   34.2840 dc         1 CLA      0.120400
    137 H11        81.0181   52.8932   33.4615 dc         1 CLA      0.120400
    138 C1         67.9992   60.6037   48.7312 Z1         2 LUT      0.509236
    139 C2         66.6124   60.4470   49.3169 Z2         2 LUT     -0.434695
    140 C3         65.8946   61.6337   49.7808 Z3         2 LUT      0.437453
    141 O3         66.3508   61.9028   51.1172 S1         2 LUT     -0.547129
    142 C4         66.1428   62.8194   48.8783 Z4         2 LUT     -0.468603
    143 C5         66.8522   62.6172   47.6251 Z5         2 LUT      0.279246
    144 C6         67.7352   61.6075   47.5191 Z6         2 LUT     -0.305473
    145 C7         68.2338   61.2203   46.2156 Z7         2 LUT      0.069402
    146 C8         69.0185   61.9453   45.3920 Z8         2 LUT     -0.191631
    147 C9         69.5772   61.5570   44.1012 Z9         2 LUT      0.196698
    148 C10        70.6147   62.3662   43.6252 Y1         2 LUT     -0.208611
    149 C11        71.1906   62.3409   42.3031 Y2         2 LUT      0.030784
    150 C12        72.3575   63.0191   42.0902 Y3         2 LUT     -0.220316
    151 C13        73.2662   62.8070   40.9698 Y4         2 LUT      0.215937
    152 C14        74.5993   63.4198   41.0983 Y5         2 LUT     -0.185793
    153 C15        75.7235   63.5042   40.1864 Y6         2 LUT     -0.057835
    154 C16        68.5468   59.2225   48.4500 Y7         2 LUT     -0.405615
    155 C17        68.9516   61.0270   49.8784 Y7         2 LUT     -0.405615
    156 C18        66.2696   63.4888   46.4860 Y9         2 LUT     -0.369639
    157 C19        68.8898   60.4076   43.4761 W1         2 LUT     -0.333362
    158 C20        72.6758   61.9268   39.8858 W2         2 LUT     -0.323439
    159 C21        87.3447   64.2563   34.4179 Z1         2 LUT      0.406104
    160 C22        88.1924   63.8029   33.1427 Z2         2 LUT     -0.404965
    161 C23        88.4388   64.7404   31.9934 Z3         2 LUT      0.391255
    162 O23        89.1593   63.9466   31.0164 S1         2 LUT     -0.528210
    163 C24        87.2398   65.5175   31.6759 W6         2 LUT     -0.258361
    164 C25        86.1715   65.5266   32.4318 Z5         2 LUT      0.133546
    165 C26        85.9326   64.7925   33.8237 W8         2 LUT     -0.147008
    166 C27        85.0464   65.3982   34.8797 Z7         2 LUT      0.023843
    167 C28        84.0155   64.9142   35.5809 Z8         2 LUT     -0.216987
    168 C29        83.4611   65.4799   36.8502 Z9         2 LUT      0.206524
    169 C30        82.3362   64.9170   37.4110 Y1         2 LUT     -0.215556
    170 C31        81.4619   65.2949   38.5483 Y2         2 LUT      0.025142
    171 C32        80.2936   64.7059   38.6210 Y3         2 LUT     -0.212209
    172 C33        79.3157   64.9239   39.5943 Y4         2 LUT      0.240937
    173 C34        78.0494   64.2712   39.5197 Y5         2 LUT     -0.218862
    174 C35        76.9664   64.0938   40.4552 Y6         2 LUT     -0.023547
    175 C36        88.1117   65.3506   35.0970 Y7         2 LUT     -0.393485
    176 C37        87.2863   62.9760   35.3241 Y7         2 LUT     -0.393485
    177 C38        84.9256   66.3213   31.9569 Y9         2 LUT     -0.387526
    178 C39        84.2400   66.4248   37.6725 W1         2 LUT     -0.322618
    179 C40        79.6314   65.8261   40.7938 W2         2 LUT     -0.358472
    180 H403       80.5198   65.5774   41.1740 R7         2 LUT      0.097720
    181 H402       79.7129   66.8432   40.5698 R7         2 LUT      0.097720
    182 H401       78.7829   65.6481   41.5670 R7         2 LUT      0.097720
    183 H393       84.3285   67.4256   37.2181 R4         2 LUT      0.082505
    184 H392       83.6933   66.5540   38.6329 R4         2 LUT      0.082505
    185 H391       85.2250   66.0586   38.0109 R4         2 LUT      0.082505
    186 H383       84.5324   66.9773   32.7689 R1         2 LUT      0.104030
    187 H382       85.1741   66.9126   31.0749 R1         2 LUT      0.104030
    188 H381       84.0769   65.7285   31.7536 R1         2 LUT      0.104030
    189 H373       86.9019   62.1256   34.7210 T4         2 LUT      0.089537
    190 H372       88.1850   62.7393   35.8833 T4         2 LUT      0.089537
    191 H371       86.6224   63.1902   36.0866 T4         2 LUT      0.089537
    192 H363       89.1133   64.8866   35.4356 T4         2 LUT      0.089537
    193 H362       88.3258   66.1740   34.3775 T4         2 LUT      0.089537
    194 H361       87.7064   65.7025   36.0739 T4         2 LUT      0.089537
    195 H222       89.2123   63.4882   33.3969 U2         2 LUT      0.127376
    196 H221       87.6353   62.9610   32.7640 U2         2 LUT      0.127376
    197 H203       72.8377   60.8763   40.1983 R7         2 LUT      0.087068
    198 H202       71.6407   62.1296   39.6656 R7         2 LUT      0.087068
    199 H201       73.2202   61.9590   38.9314 R7         2 LUT      0.087068
    200 H193       69.3262   60.1576   42.5502 R4         2 LUT      0.089716
    201 H192       69.0060   59.4182   43.9567 R4         2 LUT      0.089716
    202 H191       67.8574   60.7096   43.2863 R4         2 LUT      0.089716
    203 H183       65.1522   63.5579   46.5416 R1         2 LUT      0.094572
    204 H182       66.6910   64.4453   46.6352 R1         2 LUT      0.094572
    205 H181       66.5091   63.0693   45.5210 R1         2 LUT      0.094572
    206 H173       70.0228   61.0218   49.5633 T4         2 LUT      0.093752
    207 H172       68.7174   62.0242   50.1825 T4         2 LUT      0.093752
    208 H171       68.8893   60.4507   50.8181 T4         2 LUT      0.093752
    209 H163       68.5824   58.5776   49.3708 T4         2 LUT      0.093752
    210 H162       67.9777   58.7150   47.7038 T4         2 LUT      0.093752
    211 H161       69.5140   59.2886   47.9620 T4         2 LUT      0.093752
    212 HO3        65.8565   61.4235   51.7505 Q1         2 LUT      0.300121
    213 H8         69.2189   62.9179   45.7727 U7         2 LUT      0.080784
    214 H7         67.9114   60.1845   45.8592 U6         2 LUT      0.042190
    215 H42        65.2514   63.3432   48.7197 U5         2 LUT      0.145166
    216 H41        66.5878   63.4984   49.4886 U5         2 LUT      0.145166
    217 H35        77.0219   64.5558   41.4141 T3         2 LUT      0.077919
    218 H34        78.0315   63.6678   38.6109 T2         2 LUT      0.073626
    219 H32        79.9008   64.0585   37.8235 T1         2 LUT      0.092510
    220 H31        81.7016   65.9066   39.3768 U9         2 LUT      0.070048
    221 H30        81.9273   64.1539   36.7524 U8         2 LUT      0.085442
    222 H3         64.8552   61.4282   49.7170 U3         2 LUT     -0.031596
    223 H28        83.5614   63.9872   35.1960 U7         2 LUT      0.084728
    224 H27        85.4315   66.3454   35.2018 U6         2 LUT      0.087291
    225 H26        85.2870   63.9824   33.4791 Q6         2 LUT      0.075325
    226 H24        87.1659   65.9851   30.7141 Q5         2 LUT      0.094482
    227 H23        89.1413   65.5347   32.3453 U3         2 LUT     -0.024869
    228 H22        65.9782   60.1336   48.4950 U2         2 LUT      0.127376
    229 H21        66.5698   59.5929   50.0984 U2         2 LUT      0.127376
    230 H15        75.6008   63.0518   39.2504 T3         2 LUT      0.093200
    231 H14        74.7852   63.8299   42.0447 T2         2 LUT      0.068865
    232 H12        72.6483   63.6599   42.8984 T1         2 LUT      0.095507
    233 H11        70.7631   61.5575   41.5839 U9         2 LUT      0.068930
    234 H10        70.9231   63.2538   44.1551 U8         2 LUT      0.083911
    235 H1         88.8043   64.0529   30.1008 Q1         2 LUT      0.297311
@<TRIPOS>BOND
    1     6     1 1
    2     7     2 1
    3     8     3 1
    4     9     4 1
    5    11     4 1
    6    12     6 1
    7    13     9 1
    8    16     9 1
    9    25     5 1
   10    25    16 1
   11    26    10 1
   12    26    17 1
   13    27    18 1
   14    28    14 1
   15    28    19 1
   16    29    12 1
   17    30    13 1
   18    31    24 1
   19    32     1 1
   20    32    25 1
   21    33    21 1
   22    33    26 1
   23    34    22 1
   24    34    27 1
   25    35    23 1
   26    35    28 1
   27    36    12 1
   28    36    24 1
   29    37    13 1
   30    37    15 1
   31    38    31 1
   32    39    20 1
   33    39    32 1
   34    40     2 1
   35    40    33 1
   36    41     3 1
   37    41    34 1
   38    42     4 1
   39    42    35 1
   40    43    38 1
   41    44     5 1
   42    44    17 1
   43    44    39 1
   44    45    10 1
   45    45    18 1
   46    45    40 1
   47    46    19 1
   48    46    41 1
   49    47    14 1
   50    47    16 1
   51    47    42 1
   52    48    38 1
   53    49    48 1
   54    50    49 1
   55    51    50 1
   56    52    51 1
   57    53    51 1
   58    54    53 1
   59    55    54 1
   60    56    55 1
   61    57    56 1
   62    58    56 1
   63    59    58 1
   64    60    59 1
   65    61    60 1
   66    62    61 1
   67    63    61 1
   68    64    27 1
   69    64    46 1
   70    65     5 1
   71    65    10 1
   72    65    64 1
   73    65    14 1
   74    66    23 1
   75    67    23 1
   76    68    23 1
   77    69    22 1
   78    70    22 1
   79    71    22 1
   80    72    21 1
   81    73    21 1
   82    74    21 1
   83    75    20 1
   84    76    20 1
   85    77    20 1
   86    78    15 1
   87    79    15 1
   88    80    15 1
   89    81     8 1
   90    82     8 1
   91    83     8 1
   92    84     7 1
   93    85     7 1
   94    86     6 1
   95    87     6 1
   96    88     3 1
   97    89     3 1
   98    90     1 1
   99    91     1 1
  100    92    63 1
  101    93    63 1
  102    94    63 1
  103    95    62 1
  104    96    62 1
  105    97    62 1
  106    98    60 1
  107    99    60 1
  108   100    59 1
  109   101    59 1
  110   102    58 1
  111   103    58 1
  112   104    57 1
  113   105    57 1
  114   106    57 1
  115   107    55 1
  116   108    55 1
  117   109    54 1
  118   110    54 1
  119   111    53 1
  120   112    53 1
  121   113    19 1
  122   114    18 1
  123   115    17 1
  124   116     9 1
  125   117     2 1
  126   118    52 1
  127   119    52 1
  128   120    52 1
  129   121    51 1
  130   122    50 1
  131   123    50 1
  132   124    49 1
  133   125    49 1
  134   126    48 1
  135   127    48 1
  136   128    43 1
  137   129    43 1
  138   130    43 1
  139   131    39 1
  140   132    32 1
  141   133    31 1
  142   134    61 1
  143   135    56 1
  144   136    24 1
  145   137    24 1
  146   139   138 1
  147   140   139 1
  148   141   140 1
  149   142   140 1
  150   143   142 1
  151   144   138 1
  152   144   143 1
  153   145   144 1
  154   146   145 1
  155   147   146 1
  156   148   147 1
  157   149   148 1
  158   150   149 1
  159   151   150 1
  160   152   151 1
  161   153   152 1
  162   154   138 1
  163   155   138 1
  164   156   143 1
  165   157   147 1
  166   158   151 1
  167   160   159 1
  168   161   160 1
  169   162   161 1
  170   163   161 1
  171   164   163 1
  172   165   159 1
  173   165   164 1
  174   166   165 1
  175   167   166 1
  176   168   167 1
  177   169   168 1
  178   170   169 1
  179   171   170 1
  180   172   171 1
  181   173   172 1
  182   174   153 1
  183   174   173 1
  184   175   159 1
  185   176   159 1
  186   177   164 1
  187   178   168 1
  188   179   172 1
  189   180   179 1
  190   181   179 1
  191   182   179 1
  192   183   178 1
  193   184   178 1
  194   185   178 1
  195   186   177 1
  196   187   177 1
  197   188   177 1
  198   189   176 1
  199   190   176 1
  200   191   176 1
  201   192   175 1
  202   193   175 1
  203   194   175 1
  204   195   160 1
  205   196   160 1
  206   197   158 1
  207   198   158 1
  208   199   158 1
  209   200   157 1
  210   201   157 1
  211   202   157 1
  212   203   156 1
  213   204   156 1
  214   205   156 1
  215   206   155 1
  216   207   155 1
  217   208   155 1
  218   209   154 1
  219   210   154 1
  220   211   154 1
  221   212   141 1
  222   213   146 1
  223   214   145 1
  224   215   142 1
  225   216   142 1
  226   217   174 1
  227   218   173 1
  228   219   171 1
  229   220   170 1
  230   221   169 1
  231   222   140 1
  232   223   167 1
  233   224   166 1
  234   225   165 1
  235   226   163 1
  236   227   161 1
  237   228   139 1
  238   229   139 1
  239   230   153 1
  240   231   152 1
  241   232   150 1
  242   233   149 1
  243   234   148 1
  244   235   162 1
  245   65    153 1
  246   65    174 1
@<TRIPOS>SUBSTRUCTURE
      1 CLA               1 ****               0 ****  **** 
      2 LUT             138 ****               0 ****  **** 
