@<TRIPOS>MOLECULE
Cpptraj generated mol2 file.
  235   246     2     0     0
SMALL
USER_CHARGES


@<TRIPOS>ATOM
      1 CAA        78.4346   58.2230   35.4094 a2         1 CLA     -0.055900
      2 CAB        77.7986   61.9377   44.4352 c8         1 CLA     -0.148500
      3 CAC        71.2529   57.6567   44.0367 a2         1 CLA     -0.012600
      4 CAD        74.2416   55.2260   36.6752 ck         1 CLA      0.398800
      5 NA         77.1705   58.5333   38.8460 ns         1 CLA     -0.225500
      6 CBA        79.8120   57.9699   34.6657 a2         1 CLA     -0.135000
      7 CBB        78.8983   62.0459   45.1702 c0         1 CLA     -0.395200
      8 CBC        71.5355   56.1855   44.3922 a3         1 CLA     -0.037700
      9 CBD        75.7565   55.7846   36.4365 a1         1 CLA     -0.053900
     10 NB         76.8426   60.0925   41.3624 nm         1 CLA     -0.295700
     11 OBD        73.6317   54.4523   35.9282 o2         1 CLA     -0.494600
     12 CGA        80.3857   56.5338   34.5580 c4         1 CLA      0.827000
     13 CGD        76.8214   54.6462   36.3190 c4         1 CLA      0.655300
     14 ND         74.3606   57.4481   39.3849 nm         1 CLA     -0.291600
     15 CED        77.6791   52.5232   37.2894 a3         1 CLA      0.005400
     16 CHA        75.9265   56.9020   37.5201 cs         1 CLA     -0.123800
     17 CHB        78.7004   60.2852   39.7499 aa         1 CLA     -0.291900
     18 CHC        75.5731   60.0750   43.4802 aa         1 CLA     -0.090400
     19 CHD        72.5206   57.2166   41.0103 aa         1 CLA     -0.052000
     20 CMA        80.6011   58.1502   38.5407 a3         1 CLA     -0.230700
     21 CMB        79.8329   62.2581   41.8850 a3         1 CLA     -0.180800
     22 CMC        73.0540   59.8457   45.3173 a3         1 CLA     -0.134000
     23 CMD        71.5559   55.2752   38.6514 a3         1 CLA     -0.141100
     24 C1         81.3925   54.7910   35.7562 a2         1 CLA      0.023000
     25 C1A        77.0703   57.7705   37.7135 ac         1 CLA     -0.015100
     26 C1B        78.0087   60.6539   40.9467 cr         1 CLA      0.054700
     27 C1C        74.4173   59.3849   43.0462 cn         1 CLA     -0.005600
     28 C1D        73.1345   56.9059   39.7890 ap         1 CLA     -0.047300
     29 O1A        80.0796   55.7642   33.6269 o2         1 CLA     -0.610800
     30 O1D        77.7951   54.7073   35.5633 o2         1 CLA     -0.558200
     31 C2         82.2327   54.6016   37.0570 c8         1 CLA     -0.325100
     32 C2A        78.4676   57.7652   36.9326 a1         1 CLA      0.098600
     33 C2B        78.5559   61.5449   41.9855 cb         1 CLA      0.088500
     34 C2C        73.1867   59.3084   43.9007 cb         1 CLA      0.053700
     35 C2D        72.7281   55.9778   38.7659 cb         1 CLA      0.058900
     36 O2A        81.1954   56.2044   35.6567 o1         1 CLA     -0.437200
     37 O2D        76.7137   53.6117   37.2702 o1         1 CLA     -0.357600
     38 C3         82.7369   53.4474   37.5147 c5         1 CLA      0.031200
     39 C3A        79.2839   58.7689   37.8418 a1         1 CLA      0.166800
     40 C3B        77.6908   61.4224   43.0368 cb         1 CLA      0.035000
     41 C3C        72.3797   58.3397   43.3157 cb         1 CLA     -0.089900
     42 C3D        73.8296   55.8882   37.8705 cb         1 CLA     -0.035900
     43 C4         81.9136   52.4553   38.3414 a3         1 CLA     -0.053300
     44 C4A        78.3113   59.2877   38.8581 ac         1 CLA      0.001800
     45 C4B        76.6528   60.4837   42.6634 cn         1 CLA     -0.020900
     46 C4C        72.9576   58.1148   41.9846 cr         1 CLA     -0.044400
     47 C4D        74.8174   56.8285   38.3071 c6         1 CLA     -0.046000
     48 C5         84.1919   53.1021   37.3090 a2         1 CLA     -0.070400
     49 C6         85.1777   54.2049   37.4338 a2         1 CLA      0.043900
     50 C7         85.3440   54.7100   38.8738 a2         1 CLA     -0.150000
     51 C8         86.5063   55.6615   39.1814 a1         1 CLA      0.064200
     52 C9         87.9288   55.1702   38.8593 a3         1 CLA     -0.259300
     53 C10        86.3841   56.2613   40.5749 a2         1 CLA     -0.071900
     54 C11        85.1636   57.2561   40.8584 a2         1 CLA      0.014500
     55 C12        85.2565   57.8638   42.3133 a2         1 CLA     -0.112100
     56 C13        85.2795   56.9048   43.5605 a1         1 CLA      0.089200
     57 C14        84.0311   55.9575   43.5638 a3         1 CLA     -0.239100
     58 C15        85.3229   57.6924   44.8977 a2         1 CLA     -0.102200
     59 C16        84.4385   58.8840   45.1384 a2         1 CLA      0.023900
     60 C17        84.6463   59.4197   46.5923 a2         1 CLA     -0.105700
     61 C18        84.1760   60.8054   46.8959 a1         1 CLA      0.206800
     62 C19        82.6702   60.9624   46.7180 a3         1 CLA     -0.280100
     63 C20        84.6764   61.2886   48.2662 a3         1 CLA     -0.280100
     64 NC         74.1472   58.7936   41.8874 nx         1 CLA     -0.309200
     65 MG         75.5518   58.8264   40.2159 mg         1 CLA      0.895000
     66 HMD3       71.6453   54.3829   38.0374 dc         1 CLA      0.064300
     67 HMD2       71.0359   55.1264   39.6105 dc         1 CLA      0.064300
     68 HMD1       70.7864   55.8400   38.1137 dc         1 CLA      0.064300
     69 HMC3       72.0335   59.9529   45.6843 dc         1 CLA      0.052100
     70 HMC2       73.6080   59.1601   46.0919 dc         1 CLA      0.052100
     71 HMC1       73.5564   60.8340   45.2864 dc         1 CLA      0.052100
     72 HMB3       79.9252   62.8123   40.9567 dc         1 CLA      0.063600
     73 HMB2       79.8269   62.9912   42.6861 dc         1 CLA      0.063600
     74 HMB1       80.7158   61.6622   42.1034 dc         1 CLA      0.063600
     75 HMA3       81.2067   57.6140   37.8021 dc         1 CLA      0.058300
     76 HMA2       81.1544   58.8793   39.1457 dc         1 CLA      0.058300
     77 HMA1       80.3914   57.4221   39.3757 dc         1 CLA      0.058300
     78 HED3       77.4697   51.7271   38.1035 dc         1 CLA      0.079300
     79 HED2       77.7218   52.0018   36.3010 dc         1 CLA      0.079300
     80 HED1       78.6708   52.9147   37.5284 dc         1 CLA      0.079300
     81 HBC3       70.6765   55.9371   44.9983 dc         1 CLA      0.016300
     82 HBC2       71.6444   55.5323   43.5890 dc         1 CLA      0.016300
     83 HBC1       72.4439   56.2070   44.9975 dc         1 CLA      0.016300
     84 HBB2       78.8860   62.5072   46.1793 da         1 CLA      0.183000
     85 HBB1       79.8507   61.8320   44.7583 da         1 CLA      0.183000
     86 HBA2       79.7406   58.4762   33.6723 dc         1 CLA      0.029400
     87 HBA1       80.5579   58.6085   35.0901 dc         1 CLA      0.029400
     88 HAC2       70.8629   58.2382   44.8724 dc         1 CLA      0.029300
     89 HAC1       70.4139   57.6406   43.3060 dc         1 CLA      0.029300
     90 HAA2       77.6258   57.7023   34.8202 dc         1 CLA      0.028700
     91 HAA1       78.3235   59.2715   35.4169 dc         1 CLA      0.028700
     92 H203       84.2613   62.3022   48.4898 dc         1 CLA      0.065600
     93 H202       84.4290   60.7238   49.0956 dc         1 CLA      0.065600
     94 H201       85.7307   61.4339   48.2333 dc         1 CLA      0.065600
     95 H193       82.4868   62.0609   46.7330 dc         1 CLA      0.065600
     96 H192       82.4662   60.6738   45.6735 dc         1 CLA      0.065600
     97 H191       81.9755   60.3812   47.4242 dc         1 CLA      0.065600
     98 H172       84.2077   58.7056   47.2448 dc         1 CLA      0.027600
     99 H171       85.7109   59.3962   46.7757 dc         1 CLA      0.027600
    100 H162       84.5937   59.7017   44.4061 dc         1 CLA      0.002900
    101 H161       83.3643   58.5175   44.9142 dc         1 CLA      0.002900
    102 H152       85.1331   56.9550   45.7300 dc         1 CLA      0.029100
    103 H151       86.3272   58.0251   45.1911 dc         1 CLA      0.029100
    104 H143       83.1123   56.5079   43.8749 dc         1 CLA      0.063600
    105 H142       83.9157   55.5201   42.5982 dc         1 CLA      0.063600
    106 H141       84.1381   55.1337   44.2569 dc         1 CLA      0.063600
    107 H122       86.1552   58.4127   42.4057 dc         1 CLA      0.032500
    108 H121       84.3909   58.5005   42.4075 dc         1 CLA      0.032500
    109 H112       85.4273   58.1209   40.2605 dc         1 CLA      0.006600
    110 H111       84.1936   56.8669   40.6126 dc         1 CLA      0.006600
    111 H102       86.2324   55.4274   41.2926 dc         1 CLA      0.024100
    112 H101       87.3584   56.7779   40.7630 dc         1 CLA      0.024100
    113 HHD        71.6453   56.5963   41.2118 da         1 CLA      0.174300
    114 HHC        75.5644   60.4207   44.4610 da         1 CLA      0.136800
    115 HHB        79.7285   60.6379   39.6284 da         1 CLA      0.138300
    116 HBD        75.7352   56.2709   35.5454 dc         1 CLA      0.107700
    117 HAB        76.8836   62.2159   44.9603 da         1 CLA      0.155200
    118 H93        88.0733   54.2208   39.3762 dc         1 CLA      0.069500
    119 H92        88.0949   55.0405   37.7751 dc         1 CLA      0.069500
    120 H91        88.6910   55.9226   39.1742 dc         1 CLA      0.069500
    121 H8         86.2334   56.4652   38.4914 dc         1 CLA      0.029300
    122 H72        84.5121   55.2450   39.1353 dc         1 CLA      0.044400
    123 H71        85.4406   53.8639   39.5537 dc         1 CLA      0.044400
    124 H62        86.1417   53.7994   37.1293 dc         1 CLA      0.015600
    125 H61        84.8721   55.0258   36.7423 dc         1 CLA      0.015600
    126 H52        84.3698   52.2558   38.0294 dc         1 CLA      0.033200
    127 H51        84.2298   52.8102   36.2636 dc         1 CLA      0.033200
    128 H43        82.3051   52.5022   39.3074 dc         1 CLA      0.037000
    129 H42        80.8838   52.8517   38.3761 dc         1 CLA      0.037000
    130 H41        81.9950   51.4519   38.0259 dc         1 CLA      0.037000
    131 H3A        79.6439   59.5919   37.3165 dc         1 CLA      0.041100
    132 H2A        78.9744   56.7875   36.9998 dc         1 CLA      0.083100
    133 H2         82.3275   55.4319   37.7240 da         1 CLA      0.180900
    134 H18        84.6048   61.4908   46.1569 dc         1 CLA     -0.003900
    135 H13        86.1358   56.3040   43.5419 dc         1 CLA      0.019700
    136 H12        80.4867   54.2121   35.9408 dc         1 CLA      0.120400
    137 H11        82.0259   54.5085   34.8896 dc         1 CLA      0.120400
    138 C1         67.9223   61.3011   50.7991 Z1         2 LUT      0.509236
    139 C2         66.5983   61.2491   51.6240 Z2         2 LUT     -0.434695
    140 C3         65.8308   62.5927   51.9502 Z3         2 LUT      0.437453
    141 O3         66.2334   62.9427   53.2381 S1         2 LUT     -0.547129
    142 C4         66.4121   63.7001   51.0258 Z4         2 LUT     -0.468603
    143 C5         66.9449   63.2685   49.6358 Z5         2 LUT      0.279246
    144 C6         67.7194   62.1829   49.5356 Z6         2 LUT     -0.305473
    145 C7         68.0489   61.6583   48.1988 Z7         2 LUT      0.069402
    146 C8         68.8341   62.3044   47.3190 Z8         2 LUT     -0.191631
    147 C9         69.3290   61.9140   46.0767 Z9         2 LUT      0.196698
    148 C10        70.3535   62.6133   45.5449 Y1         2 LUT     -0.208611
    149 C11        71.1219   62.3774   44.3224 Y2         2 LUT      0.030784
    150 C12        72.2244   63.1369   44.0542 Y3         2 LUT     -0.220316
    151 C13        73.2281   63.1361   42.9794 Y4         2 LUT      0.215937
    152 C14        74.3285   63.9878   43.0489 Y5         2 LUT     -0.185793
    153 C15        75.4042   64.1587   42.0905 Y6         2 LUT     -0.057835
    154 C16        68.2458   59.8467   50.5108 Y7         2 LUT     -0.405615
    155 C17        69.1585   61.7981   51.5859 Y7         2 LUT     -0.405615
    156 C18        66.2412   64.0714   48.5713 Y9         2 LUT     -0.369639
    157 C19        68.6692   60.7975   45.3138 W1         2 LUT     -0.333362
    158 C20        73.0807   62.1960   41.8171 W2         2 LUT     -0.323439
    159 C21        86.8939   65.5443   36.1241 Z1         2 LUT      0.406104
    160 C22        87.7146   65.0314   34.8547 Z2         2 LUT     -0.404965
    161 C23        87.8857   66.1396   33.7078 Z3         2 LUT      0.391255
    162 O23        88.6095   65.5338   32.6267 S1         2 LUT     -0.528210
    163 C24        86.6149   66.8466   33.4354 W6         2 LUT     -0.258361
    164 C25        85.5075   66.8433   34.2101 Z5         2 LUT      0.133546
    165 C26        85.4681   66.0797   35.6126 W8         2 LUT     -0.147008
    166 C27        84.5980   66.7331   36.6491 Z7         2 LUT      0.023843
    167 C28        83.6174   66.1208   37.3047 Z8         2 LUT     -0.216987
    168 C29        83.0315   66.5661   38.5959 Z9         2 LUT      0.206524
    169 C30        81.7567   66.1060   38.8097 Y1         2 LUT     -0.215556
    170 C31        80.9640   66.2997   40.0625 Y2         2 LUT      0.025142
    171 C32        79.8218   65.5915   40.4215 Y3         2 LUT     -0.212209
    172 C33        78.8322   65.6488   41.5179 Y4         2 LUT      0.240937
    173 C34        77.6315   64.9073   41.4087 Y5         2 LUT     -0.218862
    174 C35        76.5693   64.8024   42.3380 Y6         2 LUT     -0.023547
    175 C36        87.7072   66.8407   36.7317 Y7         2 LUT     -0.393485
    176 C37        86.6508   64.3840   37.1304 Y7         2 LUT     -0.393485
    177 C38        84.2405   67.4916   33.7654 Y9         2 LUT     -0.387526
    178 C39        83.8699   67.5132   39.5551 W1         2 LUT     -0.322618
    179 C40        79.0145   66.7388   42.4790 W2         2 LUT     -0.358472
    180 H403       78.2902   66.8656   43.2851 R7         2 LUT      0.097720
    181 H402       79.9521   66.7395   42.9275 R7         2 LUT      0.097720
    182 H401       78.7920   67.7242   41.9552 R7         2 LUT      0.097720
    183 H393       83.8649   67.0458   40.5428 R4         2 LUT      0.082505
    184 H392       84.9166   67.6687   39.3063 R4         2 LUT      0.082505
    185 H391       83.3649   68.5012   39.7454 R4         2 LUT      0.082505
    186 H383       84.3227   68.0239   32.8821 R1         2 LUT      0.104030
    187 H382       83.3727   66.7060   33.8232 R1         2 LUT      0.104030
    188 H381       83.8078   68.2459   34.4406 R1         2 LUT      0.104030
    189 H373       86.1593   64.7497   38.0706 T4         2 LUT      0.089537
    190 H372       85.9543   63.6947   36.7035 T4         2 LUT      0.089537
    191 H371       87.5258   63.8280   37.5041 T4         2 LUT      0.089537
    192 H363       88.7945   66.6028   36.6953 T4         2 LUT      0.089537
    193 H362       87.4822   67.7108   36.1020 T4         2 LUT      0.089537
    194 H361       87.4139   67.1160   37.7655 T4         2 LUT      0.089537
    195 H222       88.7121   64.7233   35.2323 U2         2 LUT      0.127376
    196 H221       87.3356   64.0900   34.3338 U2         2 LUT      0.127376
    197 H203       74.0000   61.6910   41.5192 R7         2 LUT      0.087068
    198 H202       72.2782   61.4527   41.9381 R7         2 LUT      0.087068
    199 H201       72.6989   62.7397   40.9354 R7         2 LUT      0.087068
    200 H193       67.8438   60.2823   45.7615 R4         2 LUT      0.089716
    201 H192       68.2431   61.1537   44.3754 R4         2 LUT      0.089716
    202 H191       69.4733   60.0509   45.1469 R4         2 LUT      0.089716
    203 H183       66.3271   65.1706   48.7713 R1         2 LUT      0.094572
    204 H182       66.8546   64.0002   47.5979 R1         2 LUT      0.094572
    205 H181       65.1534   63.7896   48.5638 R1         2 LUT      0.094572
    206 H173       69.0441   61.5212   52.7017 T4         2 LUT      0.093752
    207 H172       70.1047   61.3443   51.2921 T4         2 LUT      0.093752
    208 H171       69.1005   62.9314   51.6181 T4         2 LUT      0.093752
    209 H163       67.4643   59.3098   50.1411 T4         2 LUT      0.093752
    210 H162       68.9685   59.7114   49.7705 T4         2 LUT      0.093752
    211 H161       68.4860   59.1820   51.3436 T4         2 LUT      0.093752
    212 HO3        65.5525   62.7822   53.8779 Q1         2 LUT      0.300121
    213 H8         69.2256   63.2176   47.6846 U7         2 LUT      0.080784
    214 H7         67.6234   60.7002   47.9313 U6         2 LUT      0.042190
    215 H42        65.7223   64.5347   51.0724 U5         2 LUT      0.145166
    216 H41        67.2508   64.0772   51.5539 U5         2 LUT      0.145166
    217 H35        76.7324   65.3856   43.2009 T3         2 LUT      0.077919
    218 H34        77.5397   64.3534   40.4272 T2         2 LUT      0.073626
    219 H32        79.4623   64.8913   39.6684 T1         2 LUT      0.092510
    220 H31        81.1601   67.0575   40.7668 U9         2 LUT      0.070048
    221 H30        81.2107   65.4288   38.0888 U8         2 LUT      0.085442
    222 H3         64.7488   62.4977   51.6708 U3         2 LUT     -0.031596
    223 H28        83.1341   65.3401   36.7674 U7         2 LUT      0.084728
    224 H27        84.9800   67.7164   37.1104 U6         2 LUT      0.087291
    225 H26        85.0451   65.1499   35.1577 Q6         2 LUT      0.075325
    226 H24        86.6364   67.3814   32.4474 Q5         2 LUT      0.094482
    227 H23        88.6425   66.8410   34.1696 U3         2 LUT     -0.024869
    228 H22        65.8890   60.7460   50.9892 U2         2 LUT      0.127376
    229 H21        66.6733   60.7887   52.5644 U2         2 LUT      0.127376
    230 H15        75.4777   63.7076   41.0765 T3         2 LUT      0.093200
    231 H14        74.4965   64.6377   43.9197 T2         2 LUT      0.068865
    232 H12        72.5448   63.8358   44.7906 T1         2 LUT      0.095507
    233 H11        70.8170   61.5995   43.6073 U9         2 LUT      0.068930
    234 H10        70.7299   63.4386   46.1622 U8         2 LUT      0.083911
    235 H1         88.0445   65.3142   31.8150 Q1         2 LUT      0.297311
@<TRIPOS>BOND
    1     6     1 1
    2     7     2 1
    3     8     3 1
    4     9     4 1
    5    11     4 1
    6    12     6 1
    7    13     9 1
    8    16     9 1
    9    25     5 1
   10    25    16 1
   11    26    10 1
   12    26    17 1
   13    27    18 1
   14    28    14 1
   15    28    19 1
   16    29    12 1
   17    30    13 1
   18    31    24 1
   19    32     1 1
   20    32    25 1
   21    33    21 1
   22    33    26 1
   23    34    22 1
   24    34    27 1
   25    35    23 1
   26    35    28 1
   27    36    12 1
   28    36    24 1
   29    37    13 1
   30    37    15 1
   31    38    31 1
   32    39    20 1
   33    39    32 1
   34    40     2 1
   35    40    33 1
   36    41     3 1
   37    41    34 1
   38    42     4 1
   39    42    35 1
   40    43    38 1
   41    44     5 1
   42    44    17 1
   43    44    39 1
   44    45    10 1
   45    45    18 1
   46    45    40 1
   47    46    19 1
   48    46    41 1
   49    47    14 1
   50    47    16 1
   51    47    42 1
   52    48    38 1
   53    49    48 1
   54    50    49 1
   55    51    50 1
   56    52    51 1
   57    53    51 1
   58    54    53 1
   59    55    54 1
   60    56    55 1
   61    57    56 1
   62    58    56 1
   63    59    58 1
   64    60    59 1
   65    61    60 1
   66    62    61 1
   67    63    61 1
   68    64    27 1
   69    64    46 1
   70    65     5 1
   71    65    10 1
   72    65    64 1
   73    65    14 1
   74    66    23 1
   75    67    23 1
   76    68    23 1
   77    69    22 1
   78    70    22 1
   79    71    22 1
   80    72    21 1
   81    73    21 1
   82    74    21 1
   83    75    20 1
   84    76    20 1
   85    77    20 1
   86    78    15 1
   87    79    15 1
   88    80    15 1
   89    81     8 1
   90    82     8 1
   91    83     8 1
   92    84     7 1
   93    85     7 1
   94    86     6 1
   95    87     6 1
   96    88     3 1
   97    89     3 1
   98    90     1 1
   99    91     1 1
  100    92    63 1
  101    93    63 1
  102    94    63 1
  103    95    62 1
  104    96    62 1
  105    97    62 1
  106    98    60 1
  107    99    60 1
  108   100    59 1
  109   101    59 1
  110   102    58 1
  111   103    58 1
  112   104    57 1
  113   105    57 1
  114   106    57 1
  115   107    55 1
  116   108    55 1
  117   109    54 1
  118   110    54 1
  119   111    53 1
  120   112    53 1
  121   113    19 1
  122   114    18 1
  123   115    17 1
  124   116     9 1
  125   117     2 1
  126   118    52 1
  127   119    52 1
  128   120    52 1
  129   121    51 1
  130   122    50 1
  131   123    50 1
  132   124    49 1
  133   125    49 1
  134   126    48 1
  135   127    48 1
  136   128    43 1
  137   129    43 1
  138   130    43 1
  139   131    39 1
  140   132    32 1
  141   133    31 1
  142   134    61 1
  143   135    56 1
  144   136    24 1
  145   137    24 1
  146   139   138 1
  147   140   139 1
  148   141   140 1
  149   142   140 1
  150   143   142 1
  151   144   138 1
  152   144   143 1
  153   145   144 1
  154   146   145 1
  155   147   146 1
  156   148   147 1
  157   149   148 1
  158   150   149 1
  159   151   150 1
  160   152   151 1
  161   153   152 1
  162   154   138 1
  163   155   138 1
  164   156   143 1
  165   157   147 1
  166   158   151 1
  167   160   159 1
  168   161   160 1
  169   162   161 1
  170   163   161 1
  171   164   163 1
  172   165   159 1
  173   165   164 1
  174   166   165 1
  175   167   166 1
  176   168   167 1
  177   169   168 1
  178   170   169 1
  179   171   170 1
  180   172   171 1
  181   173   172 1
  182   174   153 1
  183   174   173 1
  184   175   159 1
  185   176   159 1
  186   177   164 1
  187   178   168 1
  188   179   172 1
  189   180   179 1
  190   181   179 1
  191   182   179 1
  192   183   178 1
  193   184   178 1
  194   185   178 1
  195   186   177 1
  196   187   177 1
  197   188   177 1
  198   189   176 1
  199   190   176 1
  200   191   176 1
  201   192   175 1
  202   193   175 1
  203   194   175 1
  204   195   160 1
  205   196   160 1
  206   197   158 1
  207   198   158 1
  208   199   158 1
  209   200   157 1
  210   201   157 1
  211   202   157 1
  212   203   156 1
  213   204   156 1
  214   205   156 1
  215   206   155 1
  216   207   155 1
  217   208   155 1
  218   209   154 1
  219   210   154 1
  220   211   154 1
  221   212   141 1
  222   213   146 1
  223   214   145 1
  224   215   142 1
  225   216   142 1
  226   217   174 1
  227   218   173 1
  228   219   171 1
  229   220   170 1
  230   221   169 1
  231   222   140 1
  232   223   167 1
  233   224   166 1
  234   225   165 1
  235   226   163 1
  236   227   161 1
  237   228   139 1
  238   229   139 1
  239   230   153 1
  240   231   152 1
  241   232   150 1
  242   233   149 1
  243   234   148 1
  244   235   162 1
  245   65    153 1
  246   65    174 1
@<TRIPOS>SUBSTRUCTURE
      1 CLA               1 ****               0 ****  **** 
      2 LUT             138 ****               0 ****  **** 
