@<TRIPOS>MOLECULE
Cpptraj generated mol2 file.
  235   246     2     0     0
SMALL
USER_CHARGES


@<TRIPOS>ATOM
      1 CAA        78.6438   57.3815   34.1079 a2         1 CLA     -0.055900
      2 CAB        78.8459   62.0554   42.8003 c8         1 CLA     -0.148500
      3 CAC        71.8989   58.0074   42.9942 a2         1 CLA     -0.012600
      4 CAD        74.1946   55.4458   35.5205 ck         1 CLA      0.398800
      5 NA         77.7001   58.1726   37.5256 ns         1 CLA     -0.225500
      6 CBA        79.7859   56.8610   33.2122 a2         1 CLA     -0.135000
      7 CBB        80.0586   62.0958   43.3580 c0         1 CLA     -0.395200
      8 CBC        71.8558   56.4849   43.0588 a3         1 CLA     -0.037700
      9 CBD        75.7491   55.7554   35.1795 a1         1 CLA     -0.053900
     10 NB         77.6496   59.8322   40.0356 nm         1 CLA     -0.295700
     11 OBD        73.3983   54.6903   34.9618 o2         1 CLA     -0.494600
     12 CGA        79.8937   55.3883   33.0697 c4         1 CLA      0.827000
     13 CGD        76.6073   54.5157   35.1403 c4         1 CLA      0.655300
     14 ND         74.8183   57.5014   38.2102 nm         1 CLA     -0.291600
     15 CED        76.9438   52.3688   36.1975 a3         1 CLA      0.005400
     16 CHA        76.2438   56.5983   36.3179 cs         1 CLA     -0.123800
     17 CHB        79.5606   59.5332   38.4352 aa         1 CLA     -0.291900
     18 CHC        76.3482   60.1934   42.0715 aa         1 CLA     -0.090400
     19 CHD        72.9392   57.6284   39.8687 aa         1 CLA     -0.052000
     20 CMA        81.1166   57.2120   36.8749 a3         1 CLA     -0.230700
     21 CMB        80.8279   61.8244   40.1513 a3         1 CLA     -0.180800
     22 CMC        74.0294   60.0045   44.2916 a3         1 CLA     -0.134000
     23 CMD        71.5625   55.8434   37.7270 a3         1 CLA     -0.141100
     24 C1         80.5770   53.4386   34.2805 a2         1 CLA      0.023000
     25 C1A        77.4721   57.2522   36.5245 ac         1 CLA     -0.015100
     26 C1B        78.9681   60.1640   39.5961 cr         1 CLA      0.054700
     27 C1C        75.1210   59.5706   41.8908 cn         1 CLA     -0.005600
     28 C1D        73.5059   57.1481   38.6617 ap         1 CLA     -0.047300
     29 O1A        79.5307   54.6692   32.1207 o2         1 CLA     -0.610800
     30 O1D        77.4805   54.3227   34.3156 o2         1 CLA     -0.558200
     31 C2         81.0328   53.0377   35.6973 c8         1 CLA     -0.325100
     32 C2A        78.7638   57.0270   35.6468 a1         1 CLA      0.098600
     33 C2B        79.4669   61.2174   40.3874 cb         1 CLA      0.088500
     34 C2C        74.0254   59.4289   42.9123 cb         1 CLA      0.053700
     35 C2D        72.9072   56.3264   37.6326 cb         1 CLA      0.058900
     36 O2A        80.4449   54.8769   34.2734 o1         1 CLA     -0.437200
     37 O2D        76.3823   53.7173   36.2587 o1         1 CLA     -0.357600
     38 C3         81.7954   52.0017   36.0623 c5         1 CLA      0.031200
     39 C3A        79.7806   57.9451   36.4261 a1         1 CLA      0.166800
     40 C3B        78.5737   61.3212   41.5366 cb         1 CLA      0.035000
     41 C3C        73.1112   58.5467   42.2655 cb         1 CLA     -0.089900
     42 C3D        73.9010   56.1183   36.7329 cb         1 CLA     -0.035900
     43 C4         81.1323   50.6854   36.4196 a3         1 CLA     -0.053300
     44 C4A        78.9956   58.6317   37.5200 ac         1 CLA      0.001800
     45 C4B        77.4937   60.4086   41.2841 cn         1 CLA     -0.020900
     46 C4C        73.5762   58.3585   40.9068 cr         1 CLA     -0.044400
     47 C4D        75.0714   56.7716   37.1380 c6         1 CLA     -0.046000
     48 C5         83.2993   52.1461   36.0006 a2         1 CLA     -0.070400
     49 C6         83.9930   53.4069   36.5802 a2         1 CLA      0.043900
     50 C7         83.7833   53.7401   38.0507 a2         1 CLA     -0.150000
     51 C8         84.8039   54.8136   38.5081 a1         1 CLA      0.064200
     52 C9         86.3287   54.4961   38.2904 a3         1 CLA     -0.259300
     53 C10        84.4557   55.0693   40.0039 a2         1 CLA     -0.071900
     54 C11        83.0625   55.8095   40.2177 a2         1 CLA      0.014500
     55 C12        82.8689   56.3110   41.6187 a2         1 CLA     -0.112100
     56 C13        81.4316   56.8982   41.9699 a1         1 CLA      0.089200
     57 C14        80.9328   57.9258   40.9366 a3         1 CLA     -0.239100
     58 C15        81.3764   57.3518   43.4177 a2         1 CLA     -0.102200
     59 C16        82.3390   58.5249   43.7559 a2         1 CLA      0.023900
     60 C17        82.2032   59.0390   45.1708 a2         1 CLA     -0.105700
     61 C18        82.7740   60.3795   45.4841 a1         1 CLA      0.206800
     62 C19        82.3844   60.7576   46.9313 a3         1 CLA     -0.280100
     63 C20        84.3189   60.3940   45.2260 a3         1 CLA     -0.280100
     64 NC         74.8359   58.9145   40.7217 nx         1 CLA     -0.309200
     65 MG         76.1515   58.7439   39.0396 mg         1 CLA      0.895000
     66 HMD3       71.4787   55.0872   38.5153 dc         1 CLA      0.064300
     67 HMD2       70.8649   56.6269   37.7798 dc         1 CLA      0.064300
     68 HMD1       71.3390   55.2439   36.8094 dc         1 CLA      0.064300
     69 HMC3       73.8991   59.2748   45.1317 dc         1 CLA      0.052100
     70 HMC2       74.9365   60.5693   44.4783 dc         1 CLA      0.052100
     71 HMC1       73.2344   60.7326   44.2722 dc         1 CLA      0.052100
     72 HMB3       81.1389   62.6812   40.7883 dc         1 CLA      0.063600
     73 HMB2       81.5774   61.0264   40.2604 dc         1 CLA      0.063600
     74 HMB1       80.9864   62.0947   39.1115 dc         1 CLA      0.063600
     75 HMA3       81.6891   57.9459   37.4493 dc         1 CLA      0.058300
     76 HMA2       80.7519   56.4066   37.5139 dc         1 CLA      0.058300
     77 HMA1       81.6699   56.7484   36.0717 dc         1 CLA      0.058300
     78 HED3       76.2834   51.8895   35.4893 dc         1 CLA      0.079300
     79 HED2       77.9500   52.4123   35.8129 dc         1 CLA      0.079300
     80 HED1       77.0521   51.8677   37.1304 dc         1 CLA      0.079300
     81 HBC3       72.7841   56.0143   43.4115 dc         1 CLA      0.016300
     82 HBC2       71.1341   56.0958   43.7468 dc         1 CLA      0.016300
     83 HBC1       71.7420   55.9339   42.1094 dc         1 CLA      0.016300
     84 HBB2       80.2663   62.7397   44.2635 da         1 CLA      0.183000
     85 HBB1       80.8994   61.5801   42.9582 da         1 CLA      0.183000
     86 HBA2       79.6454   57.3031   32.2269 dc         1 CLA      0.029400
     87 HBA1       80.7320   57.2342   33.5445 dc         1 CLA      0.029400
     88 HAC2       71.8562   58.3520   44.0184 dc         1 CLA      0.029300
     89 HAC1       70.9596   58.3269   42.6023 dc         1 CLA      0.029300
     90 HAA2       77.7381   57.0527   33.6488 dc         1 CLA      0.028700
     91 HAA1       78.6292   58.4762   34.1334 dc         1 CLA      0.028700
     92 H203       84.4995   60.3060   44.1753 dc         1 CLA      0.065600
     93 H202       84.6165   61.3163   45.5667 dc         1 CLA      0.065600
     94 H201       84.8629   59.6514   45.8118 dc         1 CLA      0.065600
     95 H193       82.8418   60.0612   47.6692 dc         1 CLA      0.065600
     96 H192       82.7105   61.7751   47.1482 dc         1 CLA      0.065600
     97 H191       81.3262   60.8234   46.9577 dc         1 CLA      0.065600
     98 H172       81.1697   59.0751   45.3896 dc         1 CLA      0.027600
     99 H171       82.7740   58.3078   45.8064 dc         1 CLA      0.027600
    100 H162       83.3952   58.3989   43.5397 dc         1 CLA      0.002900
    101 H161       81.9382   59.2330   43.1364 dc         1 CLA      0.002900
    102 H152       80.3183   57.7046   43.6128 dc         1 CLA      0.029100
    103 H151       81.6274   56.4156   43.9388 dc         1 CLA      0.029100
    104 H143       81.5561   58.8781   40.9649 dc         1 CLA      0.063600
    105 H142       81.0823   57.4781   39.9449 dc         1 CLA      0.063600
    106 H141       79.8584   58.1554   41.0893 dc         1 CLA      0.063600
    107 H122       83.0516   55.4853   42.2852 dc         1 CLA      0.032500
    108 H121       83.6444   57.1168   41.7529 dc         1 CLA      0.032500
    109 H112       83.0794   56.6246   39.5571 dc         1 CLA      0.006600
    110 H111       82.2307   55.1811   40.0092 dc         1 CLA      0.006600
    111 H102       84.5470   54.0911   40.4886 dc         1 CLA      0.024100
    112 H101       85.1617   55.7071   40.4591 dc         1 CLA      0.024100
    113 HHD        71.9975   57.2342   40.2499 da         1 CLA      0.174300
    114 HHC        76.5000   60.6228   43.0244 da         1 CLA      0.136800
    115 HHB        80.4691   59.9843   38.1473 da         1 CLA      0.138300
    116 HBD        75.8160   56.3542   34.2781 dc         1 CLA      0.107700
    117 HAB        77.9777   62.5426   43.3491 da         1 CLA      0.155200
    118 H93        86.5332   53.4891   38.5369 dc         1 CLA      0.069500
    119 H92        86.6709   54.6579   37.2636 dc         1 CLA      0.069500
    120 H91        86.9666   55.0672   38.9399 dc         1 CLA      0.069500
    121 H8         84.5129   55.6919   37.8520 dc         1 CLA      0.029300
    122 H72        82.8367   54.1706   38.2064 dc         1 CLA      0.044400
    123 H71        83.9262   52.7999   38.6118 dc         1 CLA      0.044400
    124 H62        85.0132   53.1738   36.4314 dc         1 CLA      0.015600
    125 H61        83.6321   54.2218   35.9822 dc         1 CLA      0.015600
    126 H52        83.6181   51.3653   36.7332 dc         1 CLA      0.033200
    127 H51        83.6747   51.9467   34.9816 dc         1 CLA      0.033200
    128 H43        81.5572   50.1810   37.2833 dc         1 CLA      0.037000
    129 H42        80.1028   50.7614   36.4739 dc         1 CLA      0.037000
    130 H41        81.4818   50.0428   35.6380 dc         1 CLA      0.037000
    131 H3A        80.1093   58.7058   35.7311 dc         1 CLA      0.041100
    132 H2A        79.0751   55.9751   35.9370 dc         1 CLA      0.083100
    133 H2         80.7950   53.7343   36.5547 da         1 CLA      0.180900
    134 H18        82.2874   61.1007   44.8557 dc         1 CLA     -0.003900
    135 H13        80.6890   56.1384   41.9312 dc         1 CLA      0.019700
    136 H12        79.6763   52.9164   34.0232 dc         1 CLA      0.120400
    137 H11        81.3615   53.0483   33.5515 dc         1 CLA      0.120400
    138 C1         68.4749   61.1253   49.5606 Z1         2 LUT      0.509236
    139 C2         67.1503   60.6914   50.2301 Z2         2 LUT     -0.434695
    140 C3         66.2142   61.8125   50.7438 Z3         2 LUT      0.437453
    141 O3         66.4372   61.9019   52.1377 S1         2 LUT     -0.547129
    142 C4         66.4429   63.1389   49.9796 Z4         2 LUT     -0.468603
    143 C5         67.0657   62.9754   48.5886 Z5         2 LUT      0.279246
    144 C6         68.1255   62.1510   48.4131 Z6         2 LUT     -0.305473
    145 C7         68.4090   61.5884   47.1422 Z7         2 LUT      0.069402
    146 C8         69.4713   62.0194   46.4208 Z8         2 LUT     -0.191631
    147 C9         69.7860   61.8102   44.9926 Z9         2 LUT      0.196698
    148 C10        70.7728   62.6023   44.4489 Y1         2 LUT     -0.208611
    149 C11        71.3907   62.5083   43.2179 Y2         2 LUT      0.030784
    150 C12        72.5524   63.1913   42.9883 Y3         2 LUT     -0.220316
    151 C13        73.2927   63.3158   41.6996 Y4         2 LUT      0.215937
    152 C14        74.5394   63.9448   41.8143 Y5         2 LUT     -0.185793
    153 C15        75.5797   64.0028   40.8475 Y6         2 LUT     -0.057835
    154 C16        69.1328   59.7619   49.1562 Y7         2 LUT     -0.405615
    155 C17        69.5134   61.7540   50.6313 Y7         2 LUT     -0.405615
    156 C18        66.4085   63.7146   47.5011 Y9         2 LUT     -0.369639
    157 C19        69.1275   60.6618   44.2172 W1         2 LUT     -0.333362
    158 C20        72.7781   62.4823   40.5129 W2         2 LUT     -0.323439
    159 C21        87.3612   64.8496   34.9705 Z1         2 LUT      0.406104
    160 C22        88.2532   64.1742   33.8544 Z2         2 LUT     -0.404965
    161 C23        88.5502   65.1229   32.6877 Z3         2 LUT      0.391255
    162 O23        89.5057   64.5685   31.8183 S1         2 LUT     -0.528210
    163 C24        87.2569   65.7862   32.2330 W6         2 LUT     -0.258361
    164 C25        86.1246   65.8592   32.9272 Z5         2 LUT      0.133546
    165 C26        85.8987   65.0027   34.2596 W8         2 LUT     -0.147008
    166 C27        84.9161   65.5885   35.2211 Z7         2 LUT      0.023843
    167 C28        83.8235   65.0862   35.7321 Z8         2 LUT     -0.216987
    168 C29        82.9082   65.7609   36.7056 Z9         2 LUT      0.206524
    169 C30        81.8060   65.1171   37.0834 Y1         2 LUT     -0.215556
    170 C31        81.0149   65.4748   38.2593 Y2         2 LUT      0.025142
    171 C32        79.9323   64.8263   38.8405 Y3         2 LUT     -0.212209
    172 C33        79.0412   65.1329   40.0007 Y4         2 LUT      0.240937
    173 C34        77.9217   64.3675   40.1704 Y5         2 LUT     -0.218862
    174 C35        76.8642   64.3705   41.1763 Y6         2 LUT     -0.023547
    175 C36        88.0658   66.1119   35.5874 Y7         2 LUT     -0.393485
    176 C37        87.2278   63.7781   36.0813 Y7         2 LUT     -0.393485
    177 C38        84.9194   66.7493   32.4896 Y9         2 LUT     -0.387526
    178 C39        83.4513   66.9201   37.4547 W1         2 LUT     -0.322618
    179 C40        79.5724   66.1882   40.9325 W2         2 LUT     -0.358472
    180 H403       78.9140   66.3520   41.7381 R7         2 LUT      0.097720
    181 H402       80.6193   66.1090   41.1590 R7         2 LUT      0.097720
    182 H401       79.6769   67.1619   40.4448 R7         2 LUT      0.097720
    183 H393       84.0727   66.7629   38.4136 R4         2 LUT      0.082505
    184 H392       84.1152   67.5583   36.8500 R4         2 LUT      0.082505
    185 H391       82.6747   67.5976   37.7867 R4         2 LUT      0.082505
    186 H383       84.9788   66.9506   31.4415 R1         2 LUT      0.104030
    187 H382       84.0618   66.1377   32.5713 R1         2 LUT      0.104030
    188 H381       84.8160   67.6194   33.1215 R1         2 LUT      0.104030
    189 H373       86.6152   62.8868   35.7012 T4         2 LUT      0.089537
    190 H372       88.1956   63.3912   36.4382 T4         2 LUT      0.089537
    191 H371       86.6486   64.2150   36.8703 T4         2 LUT      0.089537
    192 H363       88.8775   65.8515   36.1893 T4         2 LUT      0.089537
    193 H362       88.4395   66.8497   34.8913 T4         2 LUT      0.089537
    194 H361       87.5329   66.5305   36.4036 T4         2 LUT      0.089537
    195 H222       89.1364   64.0335   34.3560 U2         2 LUT      0.127376
    196 H221       87.8036   63.2468   33.4421 U2         2 LUT      0.127376
    197 H203       71.7290   62.5737   40.4455 R7         2 LUT      0.087068
    198 H202       73.0976   62.8222   39.5584 R7         2 LUT      0.087068
    199 H201       73.1109   61.5059   40.6116 R7         2 LUT      0.087068
    200 H193       69.6939   60.3448   43.3788 R4         2 LUT      0.089716
    201 H192       68.9146   59.8718   44.9049 R4         2 LUT      0.089716
    202 H191       68.1886   61.0407   43.8650 R4         2 LUT      0.089716
    203 H183       67.1126   64.6315   47.3892 R1         2 LUT      0.094572
    204 H182       66.3800   63.1163   46.6139 R1         2 LUT      0.094572
    205 H181       65.3705   63.9672   47.7877 R1         2 LUT      0.094572
    206 H173       70.5827   61.8850   50.2616 T4         2 LUT      0.093752
    207 H172       69.0593   62.6393   51.0960 T4         2 LUT      0.093752
    208 H171       69.6824   61.1058   51.4525 T4         2 LUT      0.093752
    209 H163       69.1588   58.9361   49.8582 T4         2 LUT      0.093752
    210 H162       68.5646   59.4132   48.3050 T4         2 LUT      0.093752
    211 H161       70.1922   59.8560   48.8152 T4         2 LUT      0.093752
    212 HO3        65.6749   62.2640   52.5763 Q1         2 LUT      0.300121
    213 H8         70.1268   62.7575   46.9015 U7         2 LUT      0.080784
    214 H7         67.6238   61.0524   46.5780 U6         2 LUT      0.042190
    215 H42        65.5322   63.7552   49.9254 U5         2 LUT      0.145166
    216 H41        67.1708   63.7350   50.6479 U5         2 LUT      0.145166
    217 H35        77.0284   64.9344   42.1438 T3         2 LUT      0.077919
    218 H34        77.6562   63.7326   39.3166 T2         2 LUT      0.073626
    219 H32        79.5583   64.0305   38.2391 T1         2 LUT      0.092510
    220 H31        81.4391   66.2647   38.9469 U9         2 LUT      0.070048
    221 H30        81.4673   64.2641   36.6099 U8         2 LUT      0.085442
    222 H3         65.1959   61.5219   50.3822 U3         2 LUT     -0.031596
    223 H28        83.5577   64.0666   35.4957 U7         2 LUT      0.084728
    224 H27        85.3306   66.5220   35.6253 U6         2 LUT      0.087291
    225 H26        85.5604   64.0096   34.0526 Q6         2 LUT      0.075325
    226 H24        87.3064   66.4209   31.4032 Q5         2 LUT      0.094482
    227 H23        89.1231   65.9545   33.0953 U3         2 LUT     -0.024869
    228 H22        66.5245   60.2199   49.4834 U2         2 LUT      0.127376
    229 H21        67.2165   60.0551   51.0923 U2         2 LUT      0.127376
    230 H15        75.4391   63.6280   39.8860 T3         2 LUT      0.093200
    231 H14        74.8260   64.3269   42.8772 T2         2 LUT      0.068865
    232 H12        72.9754   63.7670   43.8283 T1         2 LUT      0.095507
    233 H11        70.9414   61.9508   42.4521 U9         2 LUT      0.068930
    234 H10        71.2706   63.3421   45.0334 U8         2 LUT      0.083911
    235 H1         89.0205   64.1388   31.0908 Q1         2 LUT      0.297311
@<TRIPOS>BOND
    1     6     1 1
    2     7     2 1
    3     8     3 1
    4     9     4 1
    5    11     4 1
    6    12     6 1
    7    13     9 1
    8    16     9 1
    9    25     5 1
   10    25    16 1
   11    26    10 1
   12    26    17 1
   13    27    18 1
   14    28    14 1
   15    28    19 1
   16    29    12 1
   17    30    13 1
   18    31    24 1
   19    32     1 1
   20    32    25 1
   21    33    21 1
   22    33    26 1
   23    34    22 1
   24    34    27 1
   25    35    23 1
   26    35    28 1
   27    36    12 1
   28    36    24 1
   29    37    13 1
   30    37    15 1
   31    38    31 1
   32    39    20 1
   33    39    32 1
   34    40     2 1
   35    40    33 1
   36    41     3 1
   37    41    34 1
   38    42     4 1
   39    42    35 1
   40    43    38 1
   41    44     5 1
   42    44    17 1
   43    44    39 1
   44    45    10 1
   45    45    18 1
   46    45    40 1
   47    46    19 1
   48    46    41 1
   49    47    14 1
   50    47    16 1
   51    47    42 1
   52    48    38 1
   53    49    48 1
   54    50    49 1
   55    51    50 1
   56    52    51 1
   57    53    51 1
   58    54    53 1
   59    55    54 1
   60    56    55 1
   61    57    56 1
   62    58    56 1
   63    59    58 1
   64    60    59 1
   65    61    60 1
   66    62    61 1
   67    63    61 1
   68    64    27 1
   69    64    46 1
   70    65     5 1
   71    65    10 1
   72    65    64 1
   73    65    14 1
   74    66    23 1
   75    67    23 1
   76    68    23 1
   77    69    22 1
   78    70    22 1
   79    71    22 1
   80    72    21 1
   81    73    21 1
   82    74    21 1
   83    75    20 1
   84    76    20 1
   85    77    20 1
   86    78    15 1
   87    79    15 1
   88    80    15 1
   89    81     8 1
   90    82     8 1
   91    83     8 1
   92    84     7 1
   93    85     7 1
   94    86     6 1
   95    87     6 1
   96    88     3 1
   97    89     3 1
   98    90     1 1
   99    91     1 1
  100    92    63 1
  101    93    63 1
  102    94    63 1
  103    95    62 1
  104    96    62 1
  105    97    62 1
  106    98    60 1
  107    99    60 1
  108   100    59 1
  109   101    59 1
  110   102    58 1
  111   103    58 1
  112   104    57 1
  113   105    57 1
  114   106    57 1
  115   107    55 1
  116   108    55 1
  117   109    54 1
  118   110    54 1
  119   111    53 1
  120   112    53 1
  121   113    19 1
  122   114    18 1
  123   115    17 1
  124   116     9 1
  125   117     2 1
  126   118    52 1
  127   119    52 1
  128   120    52 1
  129   121    51 1
  130   122    50 1
  131   123    50 1
  132   124    49 1
  133   125    49 1
  134   126    48 1
  135   127    48 1
  136   128    43 1
  137   129    43 1
  138   130    43 1
  139   131    39 1
  140   132    32 1
  141   133    31 1
  142   134    61 1
  143   135    56 1
  144   136    24 1
  145   137    24 1
  146   139   138 1
  147   140   139 1
  148   141   140 1
  149   142   140 1
  150   143   142 1
  151   144   138 1
  152   144   143 1
  153   145   144 1
  154   146   145 1
  155   147   146 1
  156   148   147 1
  157   149   148 1
  158   150   149 1
  159   151   150 1
  160   152   151 1
  161   153   152 1
  162   154   138 1
  163   155   138 1
  164   156   143 1
  165   157   147 1
  166   158   151 1
  167   160   159 1
  168   161   160 1
  169   162   161 1
  170   163   161 1
  171   164   163 1
  172   165   159 1
  173   165   164 1
  174   166   165 1
  175   167   166 1
  176   168   167 1
  177   169   168 1
  178   170   169 1
  179   171   170 1
  180   172   171 1
  181   173   172 1
  182   174   153 1
  183   174   173 1
  184   175   159 1
  185   176   159 1
  186   177   164 1
  187   178   168 1
  188   179   172 1
  189   180   179 1
  190   181   179 1
  191   182   179 1
  192   183   178 1
  193   184   178 1
  194   185   178 1
  195   186   177 1
  196   187   177 1
  197   188   177 1
  198   189   176 1
  199   190   176 1
  200   191   176 1
  201   192   175 1
  202   193   175 1
  203   194   175 1
  204   195   160 1
  205   196   160 1
  206   197   158 1
  207   198   158 1
  208   199   158 1
  209   200   157 1
  210   201   157 1
  211   202   157 1
  212   203   156 1
  213   204   156 1
  214   205   156 1
  215   206   155 1
  216   207   155 1
  217   208   155 1
  218   209   154 1
  219   210   154 1
  220   211   154 1
  221   212   141 1
  222   213   146 1
  223   214   145 1
  224   215   142 1
  225   216   142 1
  226   217   174 1
  227   218   173 1
  228   219   171 1
  229   220   170 1
  230   221   169 1
  231   222   140 1
  232   223   167 1
  233   224   166 1
  234   225   165 1
  235   226   163 1
  236   227   161 1
  237   228   139 1
  238   229   139 1
  239   230   153 1
  240   231   152 1
  241   232   150 1
  242   233   149 1
  243   234   148 1
  244   235   162 1
  245   65    153 1
  246   65    174 1
@<TRIPOS>SUBSTRUCTURE
      1 CLA               1 ****               0 ****  **** 
      2 LUT             138 ****               0 ****  **** 
