@<TRIPOS>MOLECULE
Cpptraj generated mol2 file.
  235   246     2     0     0
SMALL
USER_CHARGES


@<TRIPOS>ATOM
      1 CAA        80.3354   59.1070   33.9698 a2         1 CLA     -0.055900
      2 CAB        79.2744   62.1226   43.0465 c8         1 CLA     -0.148500
      3 CAC        72.7343   57.6189   41.6068 a2         1 CLA     -0.012600
      4 CAD        76.1836   56.4191   34.2570 ck         1 CLA      0.398800
      5 NA         79.0508   58.8994   37.2356 ns         1 CLA     -0.225500
      6 CBA        81.6711   59.1615   33.1469 a2         1 CLA     -0.135000
      7 CBB        79.9973   63.1870   43.4484 c0         1 CLA     -0.395200
      8 CBC        72.8365   56.3752   42.4692 a3         1 CLA     -0.037700
      9 CBD        77.6322   56.9104   34.1577 a1         1 CLA     -0.053900
     10 NB         78.7018   60.1214   39.9257 nm         1 CLA     -0.295700
     11 OBD        75.5881   55.8466   33.3626 o2         1 CLA     -0.494600
     12 CGA        82.1865   57.8781   32.5318 c4         1 CLA      0.827000
     13 CGD        78.4615   55.6423   33.9289 c4         1 CLA      0.655300
     14 ND         76.3242   57.8896   37.4802 nm         1 CLA     -0.291600
     15 CED        78.4830   53.4097   34.4532 a3         1 CLA      0.005400
     16 CHA        77.9404   57.5090   35.5426 cs         1 CLA     -0.123800
     17 CHB        80.7184   60.1477   38.5775 aa         1 CLA     -0.291900
     18 CHC        77.0452   60.2559   41.7242 aa         1 CLA     -0.090400
     19 CHD        74.2676   57.4765   38.8060 aa         1 CLA     -0.052000
     20 CMA        82.4622   57.9911   37.0289 a3         1 CLA     -0.230700
     21 CMB        81.8804   61.9711   40.7819 a3         1 CLA     -0.180800
     22 CMC        74.6299   59.3974   43.6709 a3         1 CLA     -0.134000
     23 CMD        73.3065   56.1576   36.1156 a3         1 CLA     -0.141100
     24 C1         82.8735   55.7350   33.3069 a2         1 CLA      0.023000
     25 C1A        79.0834   58.1729   36.0111 ac         1 CLA     -0.015100
     26 C1B        80.0294   60.5401   39.7047 cr         1 CLA      0.054700
     27 C1C        75.9881   59.4824   41.3180 cn         1 CLA     -0.005600
     28 C1D        75.0388   57.3532   37.6326 ap         1 CLA     -0.047300
     29 O1A        81.9163   57.4137   31.4160 o2         1 CLA     -0.610800
     30 O1D        79.2646   55.4999   32.9890 o2         1 CLA     -0.558200
     31 C2         83.7118   55.1337   34.3795 c8         1 CLA     -0.325100
     32 C2A        80.4467   58.3919   35.3217 a1         1 CLA      0.098600
     33 C2B        80.4572   61.4572   40.7523 cb         1 CLA      0.088500
     34 C2C        74.8599   59.0685   42.1580 cb         1 CLA      0.053700
     35 C2D        74.6276   56.7343   36.4235 cb         1 CLA      0.058900
     36 O2A        82.7875   57.1800   33.5945 o1         1 CLA     -0.437200
     37 O2D        78.0821   54.7404   34.8775 o1         1 CLA     -0.357600
     38 C3         84.7584   54.3796   34.1853 c5         1 CLA      0.031200
     39 C3A        81.3794   58.9892   36.4553 a1         1 CLA      0.166800
     40 C3B        79.3940   61.3990   41.7114 cb         1 CLA      0.035000
     41 C3C        74.0948   58.2913   41.2771 cb         1 CLA     -0.089900
     42 C3D        75.6971   56.8072   35.5749 cb         1 CLA     -0.035900
     43 C4         84.6798   52.8664   33.8669 a3         1 CLA     -0.053300
     44 C4A        80.3202   59.3933   37.5299 ac         1 CLA      0.001800
     45 C4B        78.2782   60.6209   41.1038 cn         1 CLA     -0.020900
     46 C4C        74.7279   58.1483   39.9768 cr         1 CLA     -0.044400
     47 C4D        76.7543   57.4514   36.2828 c6         1 CLA     -0.046000
     48 C5         86.1775   55.0111   34.2231 a2         1 CLA     -0.070400
     49 C6         86.2922   56.2395   35.1808 a2         1 CLA      0.043900
     50 C7         86.1357   55.7025   36.6463 a2         1 CLA     -0.150000
     51 C8         86.4201   56.8146   37.7791 a1         1 CLA      0.064200
     52 C9         87.8405   57.4012   37.6706 a3         1 CLA     -0.259300
     53 C10        86.0640   56.1623   39.1616 a2         1 CLA     -0.071900
     54 C11        86.1234   57.0961   40.3596 a2         1 CLA      0.014500
     55 C12        85.7625   56.3967   41.7160 a2         1 CLA     -0.112100
     56 C13        86.3208   57.1449   43.0544 a1         1 CLA      0.089200
     57 C14        87.8831   57.2366   43.1827 a3         1 CLA     -0.239100
     58 C15        85.8160   56.4411   44.3843 a2         1 CLA     -0.102200
     59 C16        84.3456   56.2352   44.7097 a2         1 CLA      0.023900
     60 C17        83.5461   57.5718   44.8347 a2         1 CLA     -0.105700
     61 C18        84.1706   58.6743   45.6770 a1         1 CLA      0.206800
     62 C19        83.4665   60.0443   45.4920 a3         1 CLA     -0.280100
     63 C20        84.3704   58.3030   47.1424 a3         1 CLA     -0.280100
     64 NC         75.9305   58.8691   40.0450 nx         1 CLA     -0.309200
     65 MG         77.4447   59.0706   38.6383 mg         1 CLA      0.895000
     66 HMD3       73.1559   55.2636   36.5899 dc         1 CLA      0.064300
     67 HMD2       72.5332   56.7757   36.4633 dc         1 CLA      0.064300
     68 HMD1       73.2320   56.0047   35.0021 dc         1 CLA      0.064300
     69 HMC3       75.3587   60.1172   44.0398 dc         1 CLA      0.052100
     70 HMC2       73.6853   59.9055   43.6759 dc         1 CLA      0.052100
     71 HMC1       74.5806   58.4893   44.3374 dc         1 CLA      0.052100
     72 HMB3       82.1527   62.3520   41.7789 dc         1 CLA      0.063600
     73 HMB2       82.5406   61.1782   40.4721 dc         1 CLA      0.063600
     74 HMB1       81.7828   62.7613   39.9997 dc         1 CLA      0.063600
     75 HMA3       83.2094   57.6465   36.3520 dc         1 CLA      0.058300
     76 HMA2       82.9977   58.6221   37.7563 dc         1 CLA      0.058300
     77 HMA1       81.9827   57.1885   37.5768 dc         1 CLA      0.058300
     78 HED3       78.2060   52.6306   35.1590 dc         1 CLA      0.079300
     79 HED2       77.8024   53.2383   33.5747 dc         1 CLA      0.079300
     80 HED1       79.5555   53.2400   34.3525 dc         1 CLA      0.079300
     81 HBC3       71.8497   55.9797   42.5689 dc         1 CLA      0.016300
     82 HBC2       73.4744   55.7748   41.8438 dc         1 CLA      0.016300
     83 HBC1       73.2310   56.6044   43.4498 dc         1 CLA      0.016300
     84 HBB2       79.8015   63.8478   44.3838 da         1 CLA      0.183000
     85 HBB1       80.8571   63.5447   42.8189 da         1 CLA      0.183000
     86 HBA2       81.4800   59.8193   32.2718 dc         1 CLA      0.029400
     87 HBA1       82.4485   59.5238   33.8082 dc         1 CLA      0.029400
     88 HAC2       72.0793   58.3030   42.1279 dc         1 CLA      0.029300
     89 HAC1       72.2471   57.4806   40.6594 dc         1 CLA      0.029300
     90 HAA2       79.7108   58.5837   33.2659 dc         1 CLA      0.028700
     91 HAA1       79.9016   60.0980   34.1334 dc         1 CLA      0.028700
     92 H203       84.8601   59.0055   47.8175 dc         1 CLA      0.065600
     93 H202       83.4715   58.0869   47.7008 dc         1 CLA      0.065600
     94 H201       84.8658   57.3375   47.1282 dc         1 CLA      0.065600
     95 H193       84.1424   60.8002   45.8588 dc         1 CLA      0.065600
     96 H192       83.2739   60.3274   44.4676 dc         1 CLA      0.065600
     97 H191       82.5788   60.1214   46.0834 dc         1 CLA      0.065600
     98 H172       83.4314   57.8328   43.8060 dc         1 CLA      0.027600
     99 H171       82.5000   57.4592   45.2127 dc         1 CLA      0.027600
    100 H162       83.9395   55.5995   43.8837 dc         1 CLA      0.002900
    101 H161       84.3486   55.6695   45.6178 dc         1 CLA      0.002900
    102 H152       86.2509   55.4360   44.3215 dc         1 CLA      0.029100
    103 H151       86.3003   56.9758   45.2545 dc         1 CLA      0.029100
    104 H143       88.3074   56.2395   43.1538 dc         1 CLA      0.063600
    105 H142       88.2435   57.9750   42.4865 dc         1 CLA      0.063600
    106 H141       88.0368   57.5113   44.2179 dc         1 CLA      0.063600
    107 H122       84.6783   56.3533   41.7407 dc         1 CLA      0.032500
    108 H121       86.1799   55.3778   41.7197 dc         1 CLA      0.032500
    109 H112       87.1324   57.4263   40.4424 dc         1 CLA      0.006600
    110 H111       85.4721   57.9467   40.2014 dc         1 CLA      0.006600
    111 H102       85.0419   55.8268   39.2238 dc         1 CLA      0.024100
    112 H101       86.7961   55.3481   39.2659 dc         1 CLA      0.024100
    113 HHD        73.2566   57.0387   38.9014 da         1 CLA      0.174300
    114 HHC        76.8890   60.5778   42.7799 da         1 CLA      0.136800
    115 HHB        81.6861   60.6174   38.4367 da         1 CLA      0.138300
    116 HBD        77.5583   57.6093   33.3333 dc         1 CLA      0.107700
    117 HAB        78.4308   61.8323   43.6679 da         1 CLA      0.155200
    118 H93        87.9640   58.2892   38.2753 dc         1 CLA      0.069500
    119 H92        88.6098   56.6733   37.9165 dc         1 CLA      0.069500
    120 H91        88.0465   57.8406   36.7008 dc         1 CLA      0.069500
    121 H8         85.6922   57.5877   37.5768 dc         1 CLA      0.029300
    122 H72        85.1710   55.2755   36.8486 dc         1 CLA      0.044400
    123 H71        86.7906   54.8412   36.7461 dc         1 CLA      0.044400
    124 H62        87.3180   56.5692   35.0120 dc         1 CLA      0.015600
    125 H61        85.7206   57.1057   35.0121 dc         1 CLA      0.015600
    126 H52        86.8930   54.2407   34.4499 dc         1 CLA      0.033200
    127 H51        86.4748   55.4531   33.2889 dc         1 CLA      0.033200
    128 H43        84.6918   52.7181   32.7756 dc         1 CLA      0.037000
    129 H42        85.4997   52.3227   34.3077 dc         1 CLA      0.037000
    130 H41        83.8028   52.4904   34.3758 dc         1 CLA      0.037000
    131 H3A        81.9163   59.8690   36.1301 dc         1 CLA      0.041100
    132 H2A        80.7571   57.3686   35.1467 dc         1 CLA      0.083100
    133 H2         83.2887   55.1862   35.3860 da         1 CLA      0.180900
    134 H18        85.1223   58.8176   45.1784 dc         1 CLA     -0.003900
    135 H13        86.0428   58.1742   42.9918 dc         1 CLA      0.019700
    136 H12        81.9096   55.3536   33.3036 dc         1 CLA      0.120400
    137 H11        83.3636   55.4797   32.3340 dc         1 CLA      0.120400
    138 C1         69.3891   61.8559   50.2465 Z1         2 LUT      0.509236
    139 C2         68.1075   61.5751   51.0591 Z2         2 LUT     -0.434695
    140 C3         67.3639   62.7547   51.5837 Z3         2 LUT      0.437453
    141 O3         67.9343   63.0969   52.8083 S1         2 LUT     -0.547129
    142 C4         67.3138   63.9120   50.6431 Z4         2 LUT     -0.468603
    143 C5         67.9519   63.6922   49.2802 Z5         2 LUT      0.279246
    144 C6         69.0615   62.8770   49.1276 Z6         2 LUT     -0.305473
    145 C7         69.4249   62.5757   47.6640 Z7         2 LUT      0.069402
    146 C8         70.6767   62.2384   47.1623 Z8         2 LUT     -0.191631
    147 C9         70.9819   62.0082   45.7394 Z9         2 LUT      0.196698
    148 C10        72.1276   62.4778   45.2686 Y1         2 LUT     -0.208611
    149 C11        72.7389   62.3889   43.9460 Y2         2 LUT      0.030784
    150 C12        73.9653   62.9598   43.6168 Y3         2 LUT     -0.220316
    151 C13        74.6730   62.9159   42.3412 Y4         2 LUT      0.215937
    152 C14        75.8721   63.6022   42.3972 Y5         2 LUT     -0.185793
    153 C15        76.8225   64.0027   41.3720 Y6         2 LUT     -0.057835
    154 C16        69.8475   60.3884   49.8084 Y7         2 LUT     -0.405615
    155 C17        70.4091   62.4821   51.3824 Y7         2 LUT     -0.405615
    156 C18        67.5160   64.7755   48.2722 Y9         2 LUT     -0.369639
    157 C19        70.0198   61.3389   44.8318 W1         2 LUT     -0.333362
    158 C20        74.1284   62.3439   41.0556 W2         2 LUT     -0.323439
    159 C21        88.2619   65.9161   34.9575 Z1         2 LUT      0.406104
    160 C22        88.8159   65.4471   33.5863 Z2         2 LUT     -0.404965
    161 C23        88.9715   66.4438   32.5015 Z3         2 LUT      0.391255
    162 O23        89.3192   65.7221   31.3033 S1         2 LUT     -0.528210
    163 C24        87.5172   67.1556   32.4087 W6         2 LUT     -0.258361
    164 C25        86.5442   67.2657   33.2873 Z5         2 LUT      0.133546
    165 C26        86.7453   66.5126   34.5848 W8         2 LUT     -0.147008
    166 C27        85.9642   67.1571   35.7712 Z7         2 LUT      0.023843
    167 C28        84.9369   66.4758   36.4804 Z8         2 LUT     -0.216987
    168 C29        84.2343   66.9251   37.6941 Z9         2 LUT      0.206524
    169 C30        83.1680   66.1224   38.1441 Y1         2 LUT     -0.215556
    170 C31        82.3237   66.1825   39.2610 Y2         2 LUT      0.025142
    171 C32        81.1894   65.4708   39.5440 Y3         2 LUT     -0.212209
    172 C33        80.3178   65.5536   40.6900 Y4         2 LUT      0.240937
    173 C34        79.1244   64.7468   40.7111 Y5         2 LUT     -0.218862
    174 C35        78.0153   64.6630   41.6624 Y6         2 LUT     -0.023547
    175 C36        89.1967   67.0005   35.4663 Y7         2 LUT     -0.393485
    176 C37        88.3586   64.7331   35.8196 Y7         2 LUT     -0.393485
    177 C38        85.1410   67.8842   32.9893 Y9         2 LUT     -0.387526
    178 C39        84.7400   68.1329   38.4570 W1         2 LUT     -0.322618
    179 C40        80.7865   66.6148   41.6594 W2         2 LUT     -0.358472
    180 H403       80.6566   67.5789   41.1784 R7         2 LUT      0.097720
    181 H402       80.1804   66.5718   42.5582 R7         2 LUT      0.097720
    182 H401       81.8032   66.4464   42.0033 R7         2 LUT      0.097720
    183 H393       84.6474   67.9808   39.5469 R4         2 LUT      0.082505
    184 H392       85.7579   68.1525   38.3625 R4         2 LUT      0.082505
    185 H391       84.4454   69.1087   38.1879 R4         2 LUT      0.082505
    186 H383       84.6328   68.4112   33.7912 R1         2 LUT      0.104030
    187 H382       85.1030   68.4979   32.0607 R1         2 LUT      0.104030
    188 H381       84.4802   67.0978   32.8198 R1         2 LUT      0.104030
    189 H373       87.5162   64.0845   35.5664 T4         2 LUT      0.089537
    190 H372       89.3379   64.2668   35.7355 T4         2 LUT      0.089537
    191 H371       88.1434   64.9026   36.8876 T4         2 LUT      0.089537
    192 H363       88.9570   67.4251   36.4823 T4         2 LUT      0.089537
    193 H362       90.2306   66.6887   35.6057 T4         2 LUT      0.089537
    194 H361       89.3434   67.9169   34.8068 T4         2 LUT      0.089537
    195 H222       89.7982   65.0033   33.6706 U2         2 LUT      0.127376
    196 H221       88.1558   64.6885   33.2035 U2         2 LUT      0.127376
    197 H203       73.9016   61.2833   41.0986 R7         2 LUT      0.087068
    198 H202       73.2092   62.8485   40.7031 R7         2 LUT      0.087068
    199 H201       74.8312   62.2829   40.2265 R7         2 LUT      0.087068
    200 H193       70.4074   61.1647   43.8893 R4         2 LUT      0.089716
    201 H192       69.6159   60.5121   45.3651 R4         2 LUT      0.089716
    202 H191       69.1532   61.9114   44.6447 R4         2 LUT      0.089716
    203 H183       68.4367   65.3295   47.8723 R1         2 LUT      0.094572
    204 H182       66.9801   64.2921   47.4398 R1         2 LUT      0.094572
    205 H181       66.8635   65.5236   48.7511 R1         2 LUT      0.094572
    206 H173       71.4412   62.4222   50.9672 T4         2 LUT      0.093752
    207 H172       70.2265   63.5913   51.5777 T4         2 LUT      0.093752
    208 H171       70.5017   61.9467   52.2907 T4         2 LUT      0.093752
    209 H163       69.4552   60.2000   48.8055 T4         2 LUT      0.093752
    210 H162       70.9220   60.4442   49.7432 T4         2 LUT      0.093752
    211 H161       69.6324   59.6480   50.6021 T4         2 LUT      0.093752
    212 HO3        67.2104   63.0320   53.5285 Q1         2 LUT      0.300121
    213 H8         71.4449   62.1311   47.8701 U7         2 LUT      0.080784
    214 H7         68.7153   62.9692   46.8362 U6         2 LUT      0.042190
    215 H42        66.3335   64.3003   50.5655 U5         2 LUT      0.145166
    216 H41        67.9134   64.7921   50.9761 U5         2 LUT      0.145166
    217 H35        78.2769   65.0006   42.6929 T3         2 LUT      0.077919
    218 H34        78.8627   64.2212   39.8333 T2         2 LUT      0.073626
    219 H32        80.9110   64.8628   38.7332 T1         2 LUT      0.092510
    220 H31        82.6155   66.9195   40.0269 U9         2 LUT      0.070048
    221 H30        82.9074   65.2575   37.6110 U8         2 LUT      0.085442
    222 H3         66.3017   62.4103   51.7234 U3         2 LUT     -0.031596
    223 H28        84.3777   65.6399   35.9682 U7         2 LUT      0.084728
    224 H27        86.2564   68.1223   36.1467 U6         2 LUT      0.087291
    225 H26        86.2888   65.5754   34.3693 Q6         2 LUT      0.075325
    226 H24        87.2324   67.6298   31.4963 Q5         2 LUT      0.094482
    227 H23        89.7590   67.1918   32.7854 U3         2 LUT     -0.024869
    228 H22        67.4577   61.2532   50.2806 U2         2 LUT      0.127376
    229 H21        68.2833   60.8502   51.7868 U2         2 LUT      0.127376
    230 H15        76.6169   63.5812   40.4065 T3         2 LUT      0.093200
    231 H14        76.0887   64.0552   43.3372 T2         2 LUT      0.068865
    232 H12        74.4453   63.4191   44.5136 T1         2 LUT      0.095507
    233 H11        72.2121   61.7398   43.2868 U9         2 LUT      0.068930
    234 H10        72.7263   62.8852   46.0911 U8         2 LUT      0.083911
    235 H1         89.0405   66.1596   30.4908 Q1         2 LUT      0.297311
@<TRIPOS>BOND
    1     6     1 1
    2     7     2 1
    3     8     3 1
    4     9     4 1
    5    11     4 1
    6    12     6 1
    7    13     9 1
    8    16     9 1
    9    25     5 1
   10    25    16 1
   11    26    10 1
   12    26    17 1
   13    27    18 1
   14    28    14 1
   15    28    19 1
   16    29    12 1
   17    30    13 1
   18    31    24 1
   19    32     1 1
   20    32    25 1
   21    33    21 1
   22    33    26 1
   23    34    22 1
   24    34    27 1
   25    35    23 1
   26    35    28 1
   27    36    12 1
   28    36    24 1
   29    37    13 1
   30    37    15 1
   31    38    31 1
   32    39    20 1
   33    39    32 1
   34    40     2 1
   35    40    33 1
   36    41     3 1
   37    41    34 1
   38    42     4 1
   39    42    35 1
   40    43    38 1
   41    44     5 1
   42    44    17 1
   43    44    39 1
   44    45    10 1
   45    45    18 1
   46    45    40 1
   47    46    19 1
   48    46    41 1
   49    47    14 1
   50    47    16 1
   51    47    42 1
   52    48    38 1
   53    49    48 1
   54    50    49 1
   55    51    50 1
   56    52    51 1
   57    53    51 1
   58    54    53 1
   59    55    54 1
   60    56    55 1
   61    57    56 1
   62    58    56 1
   63    59    58 1
   64    60    59 1
   65    61    60 1
   66    62    61 1
   67    63    61 1
   68    64    27 1
   69    64    46 1
   70    65     5 1
   71    65    10 1
   72    65    64 1
   73    65    14 1
   74    66    23 1
   75    67    23 1
   76    68    23 1
   77    69    22 1
   78    70    22 1
   79    71    22 1
   80    72    21 1
   81    73    21 1
   82    74    21 1
   83    75    20 1
   84    76    20 1
   85    77    20 1
   86    78    15 1
   87    79    15 1
   88    80    15 1
   89    81     8 1
   90    82     8 1
   91    83     8 1
   92    84     7 1
   93    85     7 1
   94    86     6 1
   95    87     6 1
   96    88     3 1
   97    89     3 1
   98    90     1 1
   99    91     1 1
  100    92    63 1
  101    93    63 1
  102    94    63 1
  103    95    62 1
  104    96    62 1
  105    97    62 1
  106    98    60 1
  107    99    60 1
  108   100    59 1
  109   101    59 1
  110   102    58 1
  111   103    58 1
  112   104    57 1
  113   105    57 1
  114   106    57 1
  115   107    55 1
  116   108    55 1
  117   109    54 1
  118   110    54 1
  119   111    53 1
  120   112    53 1
  121   113    19 1
  122   114    18 1
  123   115    17 1
  124   116     9 1
  125   117     2 1
  126   118    52 1
  127   119    52 1
  128   120    52 1
  129   121    51 1
  130   122    50 1
  131   123    50 1
  132   124    49 1
  133   125    49 1
  134   126    48 1
  135   127    48 1
  136   128    43 1
  137   129    43 1
  138   130    43 1
  139   131    39 1
  140   132    32 1
  141   133    31 1
  142   134    61 1
  143   135    56 1
  144   136    24 1
  145   137    24 1
  146   139   138 1
  147   140   139 1
  148   141   140 1
  149   142   140 1
  150   143   142 1
  151   144   138 1
  152   144   143 1
  153   145   144 1
  154   146   145 1
  155   147   146 1
  156   148   147 1
  157   149   148 1
  158   150   149 1
  159   151   150 1
  160   152   151 1
  161   153   152 1
  162   154   138 1
  163   155   138 1
  164   156   143 1
  165   157   147 1
  166   158   151 1
  167   160   159 1
  168   161   160 1
  169   162   161 1
  170   163   161 1
  171   164   163 1
  172   165   159 1
  173   165   164 1
  174   166   165 1
  175   167   166 1
  176   168   167 1
  177   169   168 1
  178   170   169 1
  179   171   170 1
  180   172   171 1
  181   173   172 1
  182   174   153 1
  183   174   173 1
  184   175   159 1
  185   176   159 1
  186   177   164 1
  187   178   168 1
  188   179   172 1
  189   180   179 1
  190   181   179 1
  191   182   179 1
  192   183   178 1
  193   184   178 1
  194   185   178 1
  195   186   177 1
  196   187   177 1
  197   188   177 1
  198   189   176 1
  199   190   176 1
  200   191   176 1
  201   192   175 1
  202   193   175 1
  203   194   175 1
  204   195   160 1
  205   196   160 1
  206   197   158 1
  207   198   158 1
  208   199   158 1
  209   200   157 1
  210   201   157 1
  211   202   157 1
  212   203   156 1
  213   204   156 1
  214   205   156 1
  215   206   155 1
  216   207   155 1
  217   208   155 1
  218   209   154 1
  219   210   154 1
  220   211   154 1
  221   212   141 1
  222   213   146 1
  223   214   145 1
  224   215   142 1
  225   216   142 1
  226   217   174 1
  227   218   173 1
  228   219   171 1
  229   220   170 1
  230   221   169 1
  231   222   140 1
  232   223   167 1
  233   224   166 1
  234   225   165 1
  235   226   163 1
  236   227   161 1
  237   228   139 1
  238   229   139 1
  239   230   153 1
  240   231   152 1
  241   232   150 1
  242   233   149 1
  243   234   148 1
  244   235   162 1
  245   65    153 1
  246   65    174 1
@<TRIPOS>SUBSTRUCTURE
      1 CLA               1 ****               0 ****  **** 
      2 LUT             138 ****               0 ****  **** 
