@<TRIPOS>MOLECULE
Cpptraj generated mol2 file.
  235   246     2     0     0
SMALL
USER_CHARGES


@<TRIPOS>ATOM
      1 CAA        79.7729   57.8588   34.0877 a2         1 CLA     -0.055900
      2 CAB        79.7760   62.5010   42.6291 c8         1 CLA     -0.148500
      3 CAC        72.8497   58.8760   42.5875 a2         1 CLA     -0.012600
      4 CAD        75.5154   55.5778   35.5419 ck         1 CLA      0.398800
      5 NA         78.6319   58.8483   37.4346 ns         1 CLA     -0.225500
      6 CBA        81.0500   57.5714   33.2699 a2         1 CLA     -0.135000
      7 CBB        80.9219   62.5024   43.3513 c0         1 CLA     -0.395200
      8 CBC        73.0178   57.4323   43.0045 a3         1 CLA     -0.037700
      9 CBD        77.0947   55.9570   35.2206 a1         1 CLA     -0.053900
     10 NB         78.5686   60.6226   39.7199 nm         1 CLA     -0.295700
     11 OBD        74.8512   54.6995   34.9281 o2         1 CLA     -0.494600
     12 CGA        81.5897   56.1635   33.2005 c4         1 CLA      0.827000
     13 CGD        77.9654   54.7808   35.1646 c4         1 CLA      0.655300
     14 ND         75.8547   58.0903   38.0478 nm         1 CLA     -0.291600
     15 CED        78.9153   52.9408   36.4847 a3         1 CLA      0.005400
     16 CHA        77.3873   57.0703   36.2710 cs         1 CLA     -0.123800
     17 CHB        80.5427   60.2927   38.2319 aa         1 CLA     -0.291900
     18 CHC        77.3701   60.9329   41.8566 aa         1 CLA     -0.090400
     19 CHD        74.0391   58.1042   39.6654 aa         1 CLA     -0.052000
     20 CMA        81.9918   57.9793   37.0225 a3         1 CLA     -0.230700
     21 CMB        81.8408   62.4480   40.2907 a3         1 CLA     -0.180800
     22 CMC        74.9935   60.9004   43.8269 a3         1 CLA     -0.134000
     23 CMD        72.7601   55.9922   37.6269 a3         1 CLA     -0.141100
     24 C1         82.4595   54.4934   34.4508 a2         1 CLA      0.023000
     25 C1A        78.5454   57.8368   36.4796 ac         1 CLA     -0.015100
     26 C1B        79.8875   60.9298   39.3551 cr         1 CLA      0.054700
     27 C1C        76.1581   60.3435   41.5678 cn         1 CLA     -0.005600
     28 C1D        74.6311   57.6367   38.5005 ap         1 CLA     -0.047300
     29 O1A        81.6350   55.4096   32.2118 o2         1 CLA     -0.610800
     30 O1D        78.8329   54.6508   34.3310 o2         1 CLA     -0.558200
     31 C2         83.2604   54.4780   35.7711 c8         1 CLA     -0.325100
     32 C2A        79.8319   57.6986   35.6838 a1         1 CLA      0.098600
     33 C2B        80.4881   61.8195   40.3285 cb         1 CLA      0.088500
     34 C2C        75.0307   60.2232   42.5051 cb         1 CLA      0.053700
     35 C2D        74.1192   56.6884   37.5766 cb         1 CLA      0.058900
     36 O2A        82.1523   55.8871   34.4017 o1         1 CLA     -0.437200
     37 O2D        77.8559   53.9990   36.3167 o1         1 CLA     -0.357600
     38 C3         84.5869   54.4468   35.8282 c5         1 CLA      0.031200
     39 C3A        80.7739   58.6884   36.3247 a1         1 CLA      0.166800
     40 C3B        79.5824   61.8433   41.3886 cb         1 CLA      0.035000
     41 C3C        74.0891   59.3680   41.9075 cb         1 CLA     -0.089900
     42 C3D        75.1227   56.4203   36.6555 cb         1 CLA     -0.035900
     43 C4         85.4282   53.2130   35.5824 a3         1 CLA     -0.053300
     44 C4A        79.9137   59.3692   37.3868 ac         1 CLA      0.001800
     45 C4B        78.4301   61.0830   41.0380 cn         1 CLA     -0.020900
     46 C4C        74.6628   58.9927   40.5894 cr         1 CLA     -0.044400
     47 C4D        76.2472   57.2245   37.0339 c6         1 CLA     -0.046000
     48 C5         85.3716   55.7847   35.9403 a2         1 CLA     -0.070400
     49 C6         86.0996   55.8906   37.2965 a2         1 CLA      0.043900
     50 C7         86.7544   57.2844   37.4067 a2         1 CLA     -0.150000
     51 C8         87.8588   57.5428   38.4756 a1         1 CLA      0.064200
     52 C9         89.0951   56.6295   38.1853 a3         1 CLA     -0.259300
     53 C10        87.3963   57.4682   40.0176 a2         1 CLA     -0.071900
     54 C11        88.4053   57.9309   41.0588 a2         1 CLA      0.014500
     55 C12        87.7347   58.2217   42.4234 a2         1 CLA     -0.112100
     56 C13        88.6476   59.0924   43.3308 a1         1 CLA      0.089200
     57 C14        90.0138   58.5074   43.5595 a3         1 CLA     -0.239100
     58 C15        87.8910   59.5692   44.5963 a2         1 CLA     -0.102200
     59 C16        88.5894   60.6916   45.3814 a2         1 CLA      0.023900
     60 C17        87.7783   61.1391   46.6930 a2         1 CLA     -0.105700
     61 C18        87.1974   60.1297   47.7202 a1         1 CLA      0.206800
     62 C19        88.2621   59.1190   48.1506 a3         1 CLA     -0.280100
     63 C20        86.4292   60.7924   48.9139 a3         1 CLA     -0.280100
     64 NC         75.8463   59.6759   40.4314 nx         1 CLA     -0.309200
     65 MG         77.1513   59.4184   38.8219 mg         1 CLA      0.895000
     66 HMD3       72.5333   55.5885   38.6120 dc         1 CLA      0.064300
     67 HMD2       71.9695   56.6872   37.3936 dc         1 CLA      0.064300
     68 HMD1       72.8721   55.1932   36.8933 dc         1 CLA      0.064300
     69 HMC3       75.4910   61.8719   43.6681 dc         1 CLA      0.052100
     70 HMC2       74.0058   60.9514   44.0612 dc         1 CLA      0.052100
     71 HMC1       75.4035   60.2173   44.5222 dc         1 CLA      0.052100
     72 HMB3       82.2668   62.6758   39.3446 dc         1 CLA      0.063600
     73 HMB2       81.7418   63.3767   40.7874 dc         1 CLA      0.063600
     74 HMB1       82.6076   61.7488   40.6514 dc         1 CLA      0.063600
     75 HMA3       81.6282   57.2722   37.8184 dc         1 CLA      0.058300
     76 HMA2       82.6581   57.4800   36.2496 dc         1 CLA      0.058300
     77 HMA1       82.6308   58.6465   37.5236 dc         1 CLA      0.058300
     78 HED3       78.5148   51.9793   36.0550 dc         1 CLA      0.079300
     79 HED2       79.9632   53.2169   36.1174 dc         1 CLA      0.079300
     80 HED1       79.1003   52.7909   37.5642 dc         1 CLA      0.079300
     81 HBC3       73.8393   57.3404   43.6928 dc         1 CLA      0.016300
     82 HBC2       72.1753   57.0307   43.6294 dc         1 CLA      0.016300
     83 HBC1       73.1229   56.8231   42.0685 dc         1 CLA      0.016300
     84 HBB2       80.9902   62.9288   44.3160 da         1 CLA      0.183000
     85 HBB1       81.9430   62.0635   43.0181 da         1 CLA      0.183000
     86 HBA2       80.9121   57.9364   32.2353 dc         1 CLA      0.029400
     87 HBA1       81.8985   58.1916   33.6120 dc         1 CLA      0.029400
     88 HAC2       72.5731   59.4602   43.4345 dc         1 CLA      0.029300
     89 HAC1       72.0370   58.9475   41.8582 dc         1 CLA      0.029300
     90 HAA2       79.0786   57.1016   33.7855 dc         1 CLA      0.028700
     91 HAA1       79.2437   58.7575   33.8874 dc         1 CLA      0.028700
     92 H203       87.1235   61.5651   49.2766 dc         1 CLA      0.065600
     93 H202       85.5217   61.3108   48.6602 dc         1 CLA      0.065600
     94 H201       86.2433   60.1150   49.7611 dc         1 CLA      0.065600
     95 H193       89.0705   59.6769   48.6119 dc         1 CLA      0.065600
     96 H192       87.7338   58.4501   48.8203 dc         1 CLA      0.065600
     97 H191       88.7021   58.4300   47.4040 dc         1 CLA      0.065600
     98 H172       88.4670   61.8312   47.2502 dc         1 CLA      0.027600
     99 H171       86.8916   61.7190   46.4897 dc         1 CLA      0.027600
    100 H162       89.6356   60.3379   45.6683 dc         1 CLA      0.002900
    101 H161       88.6891   61.4682   44.7118 dc         1 CLA      0.002900
    102 H152       87.0498   59.9861   44.1131 dc         1 CLA      0.029100
    103 H151       87.7397   58.6380   45.1699 dc         1 CLA      0.029100
    104 H143       90.5139   58.2006   42.6381 dc         1 CLA      0.063600
    105 H142       90.5496   59.2540   44.0281 dc         1 CLA      0.063600
    106 H141       89.9165   57.6795   44.1832 dc         1 CLA      0.063600
    107 H122       86.8123   58.7827   42.2772 dc         1 CLA      0.032500
    108 H121       87.5220   57.2195   42.8637 dc         1 CLA      0.032500
    109 H112       89.1292   57.1338   41.1628 dc         1 CLA      0.006600
    110 H111       88.8640   58.8244   40.6602 dc         1 CLA      0.006600
    111 H102       86.4313   57.9145   40.1528 dc         1 CLA      0.024100
    112 H101       87.2726   56.4274   40.3677 dc         1 CLA      0.024100
    113 HHD        73.1114   57.7200   40.0560 da         1 CLA      0.174300
    114 HHC        77.4529   61.3081   42.8729 da         1 CLA      0.136800
    115 HHB        81.5759   60.6035   38.0453 da         1 CLA      0.138300
    116 HBD        76.9310   56.3462   34.1952 dc         1 CLA      0.107700
    117 HAB        78.9432   62.9670   43.1597 da         1 CLA      0.155200
    118 H93        89.9135   56.8281   38.8915 dc         1 CLA      0.069500
    119 H92        88.8120   55.5332   38.3612 dc         1 CLA      0.069500
    120 H91        89.3951   56.5981   37.1278 dc         1 CLA      0.069500
    121 H8         88.3022   58.5652   38.3308 dc         1 CLA      0.029300
    122 H72        87.2950   57.4176   36.4750 dc         1 CLA      0.044400
    123 H71        86.0299   58.0984   37.6027 dc         1 CLA      0.044400
    124 H62        85.2983   55.5938   38.0770 dc         1 CLA      0.015600
    125 H61        86.8169   55.0309   37.3963 dc         1 CLA      0.015600
    126 H52        86.0704   55.8678   35.1122 dc         1 CLA      0.033200
    127 H51        84.6760   56.6133   35.8472 dc         1 CLA      0.033200
    128 H43        86.1469   53.5919   34.9244 dc         1 CLA      0.037000
    129 H42        85.9675   52.8138   36.4466 dc         1 CLA      0.037000
    130 H41        84.9450   52.3595   35.1851 dc         1 CLA      0.037000
    131 H3A        81.1041   59.3664   35.4659 dc         1 CLA      0.041100
    132 H2A        80.1561   56.6938   35.9618 dc         1 CLA      0.083100
    133 H2         82.7333   54.3203   36.6942 da         1 CLA      0.180900
    134 H18        86.3979   59.5473   47.1424 dc         1 CLA     -0.003900
    135 H13        88.8572   59.9423   42.6350 dc         1 CLA      0.019700
    136 H12        81.5254   53.9294   34.5278 dc         1 CLA      0.120400
    137 H11        83.1212   54.1200   33.6881 dc         1 CLA      0.120400
    138 C1         70.4243   62.7899   49.6966 Z1         2 LUT      0.509236
    139 C2         69.0620   62.4400   50.2859 Z2         2 LUT     -0.434695
    140 C3         67.9541   63.5422   50.4948 Z3         2 LUT      0.437453
    141 O3         67.6735   63.8848   51.8152 S1         2 LUT     -0.547129
    142 C4         68.2708   64.7763   49.6943 Z4         2 LUT     -0.468603
    143 C5         68.9331   64.3764   48.3912 Z5         2 LUT      0.279246
    144 C6         69.9760   63.4895   48.3764 Z6         2 LUT     -0.305473
    145 C7         70.4726   62.9157   47.1235 Z7         2 LUT      0.069402
    146 C8         71.2274   63.5576   46.1681 Z8         2 LUT     -0.191631
    147 C9         71.6368   63.0729   44.8489 Z9         2 LUT      0.196698
    148 C10        72.5659   63.8184   44.2135 Y1         2 LUT     -0.208611
    149 C11        73.3130   63.7127   42.9867 Y2         2 LUT      0.030784
    150 C12        74.6092   64.1674   42.8456 Y3         2 LUT     -0.220316
    151 C13        75.3896   64.1649   41.6744 Y4         2 LUT      0.215937
    152 C14        76.5026   64.9331   41.7463 Y5         2 LUT     -0.185793
    153 C15        77.5825   64.9295   40.8148 Y6         2 LUT     -0.057835
    154 C16        71.3472   61.5265   49.6844 Y7         2 LUT     -0.405615
    155 C17        71.1277   63.7183   50.7412 Y7         2 LUT     -0.405615
    156 C18        68.3536   65.0360   47.1410 Y9         2 LUT     -0.369639
    157 C19        70.9969   61.7897   44.2758 W1         2 LUT     -0.333362
    158 C20        74.9573   63.3305   40.4911 W2         2 LUT     -0.323439
    159 C21        88.9303   65.6573   34.5193 Z1         2 LUT      0.406104
    160 C22        89.5129   64.8046   33.4251 Z2         2 LUT     -0.404965
    161 C23        89.7418   65.6287   32.1231 Z3         2 LUT      0.391255
    162 O23        90.3491   64.7673   31.1610 S1         2 LUT     -0.528210
    163 C24        88.4010   66.2965   31.7677 W6         2 LUT     -0.258361
    164 C25        87.4290   66.5746   32.6187 Z5         2 LUT      0.133546
    165 C26        87.5034   66.0947   34.1072 W8         2 LUT     -0.147008
    166 C27        86.7492   66.9218   35.1072 Z7         2 LUT      0.023843
    167 C28        85.6814   66.4467   35.8301 Z8         2 LUT     -0.216987
    168 C29        84.9857   66.9514   37.0111 Z9         2 LUT      0.206524
    169 C30        83.8896   66.2152   37.3922 Y1         2 LUT     -0.215556
    170 C31        83.1569   66.4801   38.6247 Y2         2 LUT      0.025142
    171 C32        82.0134   65.8415   38.9031 Y3         2 LUT     -0.212209
    172 C33        81.0865   66.0881   39.9893 Y4         2 LUT      0.240937
    173 C34        79.9303   65.3875   40.0266 Y5         2 LUT     -0.218862
    174 C35        78.8583   65.3729   40.9572 Y6         2 LUT     -0.023547
    175 C36        89.9143   66.8328   34.7619 Y7         2 LUT     -0.393485
    176 C37        89.0049   64.9503   35.9159 Y7         2 LUT     -0.393485
    177 C38        86.0480   67.1415   32.0169 Y9         2 LUT     -0.387526
    178 C39        85.5075   68.2783   37.5600 W1         2 LUT     -0.322618
    179 C40        81.5382   66.8497   41.2211 W2         2 LUT     -0.358472
    180 H403       82.6245   67.0199   41.2858 R7         2 LUT      0.097720
    181 H402       80.9551   67.7253   41.3777 R7         2 LUT      0.097720
    182 H401       81.3606   66.2788   42.0962 R7         2 LUT      0.097720
    183 H393       84.8061   68.7865   38.1912 R4         2 LUT      0.082505
    184 H392       86.3709   68.0968   38.2124 R4         2 LUT      0.082505
    185 H391       85.6154   68.9831   36.8248 R4         2 LUT      0.082505
    186 H383       85.7175   68.0033   32.5505 R1         2 LUT      0.104030
    187 H382       86.1236   67.2399   30.9168 R1         2 LUT      0.104030
    188 H381       85.2743   66.4320   32.2548 R1         2 LUT      0.104030
    189 H373       88.7322   65.7248   36.7137 T4         2 LUT      0.089537
    190 H372       88.2741   64.1880   36.0382 T4         2 LUT      0.089537
    191 H371       89.9869   64.4975   36.1052 T4         2 LUT      0.089537
    192 H363       89.5818   67.4392   35.6018 T4         2 LUT      0.089537
    193 H362       90.9259   66.4814   34.9547 T4         2 LUT      0.089537
    194 H361       90.1373   67.4917   33.8914 T4         2 LUT      0.089537
    195 H222       90.5324   64.5968   33.7770 U2         2 LUT      0.127376
    196 H221       89.0342   63.8364   33.1385 U2         2 LUT      0.127376
    197 H203       74.1535   63.7598   39.8853 R7         2 LUT      0.087068
    198 H202       75.7231   63.0779   39.7788 R7         2 LUT      0.087068
    199 H201       74.6735   62.3023   40.7370 R7         2 LUT      0.087068
    200 H193       71.4044   61.4665   43.2901 R4         2 LUT      0.089716
    201 H192       70.9586   60.9804   44.9091 R4         2 LUT      0.089716
    202 H191       69.9434   61.9900   44.1654 R4         2 LUT      0.089716
    203 H183       67.3034   65.0058   47.1407 R1         2 LUT      0.094572
    204 H182       68.6089   66.0353   47.0948 R1         2 LUT      0.094572
    205 H181       68.7084   64.7265   46.1929 R1         2 LUT      0.094572
    206 H173       71.8198   64.3643   50.2401 T4         2 LUT      0.093752
    207 H172       70.4477   64.3399   51.2973 T4         2 LUT      0.093752
    208 H171       71.6400   63.2277   51.5668 T4         2 LUT      0.093752
    209 H163       72.3975   61.8707   49.5303 T4         2 LUT      0.093752
    210 H162       71.3151   60.9921   50.5980 T4         2 LUT      0.093752
    211 H161       71.1547   60.9410   48.7754 T4         2 LUT      0.093752
    212 HO3        67.3205   63.0988   52.3538 Q1         2 LUT      0.300121
    213 H8         71.5126   64.5950   46.4579 U7         2 LUT      0.080784
    214 H7         70.1235   61.9385   46.8845 U6         2 LUT      0.042190
    215 H42        67.3830   65.4318   49.6822 U5         2 LUT      0.145166
    216 H41        68.8843   65.4798   50.2429 U5         2 LUT      0.145166
    217 H35        79.0276   65.8507   41.9380 T3         2 LUT      0.077919
    218 H34        79.7372   64.6914   39.2369 T2         2 LUT      0.073626
    219 H32        81.7258   65.1064   38.0998 T1         2 LUT      0.092510
    220 H31        83.6565   67.2402   39.2746 U9         2 LUT      0.070048
    221 H30        83.6077   65.3474   36.8284 U8         2 LUT      0.085442
    222 H3         66.9969   63.2193   50.1006 U3         2 LUT     -0.031596
    223 H28        85.3113   65.4699   35.5085 U7         2 LUT      0.084728
    224 H27        87.2158   67.8134   35.3358 U6         2 LUT      0.087291
    225 H26        87.0372   65.0866   34.1042 Q6         2 LUT      0.075325
    226 H24        88.2983   66.6800   30.7160 Q5         2 LUT      0.094482
    227 H23        90.5185   66.3048   32.3095 U3         2 LUT     -0.024869
    228 H22        68.5731   61.6813   49.6102 U2         2 LUT      0.127376
    229 H21        69.1620   61.8919   51.2280 U2         2 LUT      0.127376
    230 H15        77.3704   64.4618   39.8369 T3         2 LUT      0.093200
    231 H14        76.6645   65.4993   42.6015 T2         2 LUT      0.068865
    232 H12        74.9364   64.6934   43.7312 T1         2 LUT      0.095507
    233 H11        72.7378   63.3177   42.1396 U9         2 LUT      0.068930
    234 H10        72.9711   64.6891   44.8606 U8         2 LUT      0.083911
    235 H1         89.8020   64.6953   30.3288 Q1         2 LUT      0.297311
@<TRIPOS>BOND
    1     6     1 1
    2     7     2 1
    3     8     3 1
    4     9     4 1
    5    11     4 1
    6    12     6 1
    7    13     9 1
    8    16     9 1
    9    25     5 1
   10    25    16 1
   11    26    10 1
   12    26    17 1
   13    27    18 1
   14    28    14 1
   15    28    19 1
   16    29    12 1
   17    30    13 1
   18    31    24 1
   19    32     1 1
   20    32    25 1
   21    33    21 1
   22    33    26 1
   23    34    22 1
   24    34    27 1
   25    35    23 1
   26    35    28 1
   27    36    12 1
   28    36    24 1
   29    37    13 1
   30    37    15 1
   31    38    31 1
   32    39    20 1
   33    39    32 1
   34    40     2 1
   35    40    33 1
   36    41     3 1
   37    41    34 1
   38    42     4 1
   39    42    35 1
   40    43    38 1
   41    44     5 1
   42    44    17 1
   43    44    39 1
   44    45    10 1
   45    45    18 1
   46    45    40 1
   47    46    19 1
   48    46    41 1
   49    47    14 1
   50    47    16 1
   51    47    42 1
   52    48    38 1
   53    49    48 1
   54    50    49 1
   55    51    50 1
   56    52    51 1
   57    53    51 1
   58    54    53 1
   59    55    54 1
   60    56    55 1
   61    57    56 1
   62    58    56 1
   63    59    58 1
   64    60    59 1
   65    61    60 1
   66    62    61 1
   67    63    61 1
   68    64    27 1
   69    64    46 1
   70    65     5 1
   71    65    10 1
   72    65    64 1
   73    65    14 1
   74    66    23 1
   75    67    23 1
   76    68    23 1
   77    69    22 1
   78    70    22 1
   79    71    22 1
   80    72    21 1
   81    73    21 1
   82    74    21 1
   83    75    20 1
   84    76    20 1
   85    77    20 1
   86    78    15 1
   87    79    15 1
   88    80    15 1
   89    81     8 1
   90    82     8 1
   91    83     8 1
   92    84     7 1
   93    85     7 1
   94    86     6 1
   95    87     6 1
   96    88     3 1
   97    89     3 1
   98    90     1 1
   99    91     1 1
  100    92    63 1
  101    93    63 1
  102    94    63 1
  103    95    62 1
  104    96    62 1
  105    97    62 1
  106    98    60 1
  107    99    60 1
  108   100    59 1
  109   101    59 1
  110   102    58 1
  111   103    58 1
  112   104    57 1
  113   105    57 1
  114   106    57 1
  115   107    55 1
  116   108    55 1
  117   109    54 1
  118   110    54 1
  119   111    53 1
  120   112    53 1
  121   113    19 1
  122   114    18 1
  123   115    17 1
  124   116     9 1
  125   117     2 1
  126   118    52 1
  127   119    52 1
  128   120    52 1
  129   121    51 1
  130   122    50 1
  131   123    50 1
  132   124    49 1
  133   125    49 1
  134   126    48 1
  135   127    48 1
  136   128    43 1
  137   129    43 1
  138   130    43 1
  139   131    39 1
  140   132    32 1
  141   133    31 1
  142   134    61 1
  143   135    56 1
  144   136    24 1
  145   137    24 1
  146   139   138 1
  147   140   139 1
  148   141   140 1
  149   142   140 1
  150   143   142 1
  151   144   138 1
  152   144   143 1
  153   145   144 1
  154   146   145 1
  155   147   146 1
  156   148   147 1
  157   149   148 1
  158   150   149 1
  159   151   150 1
  160   152   151 1
  161   153   152 1
  162   154   138 1
  163   155   138 1
  164   156   143 1
  165   157   147 1
  166   158   151 1
  167   160   159 1
  168   161   160 1
  169   162   161 1
  170   163   161 1
  171   164   163 1
  172   165   159 1
  173   165   164 1
  174   166   165 1
  175   167   166 1
  176   168   167 1
  177   169   168 1
  178   170   169 1
  179   171   170 1
  180   172   171 1
  181   173   172 1
  182   174   153 1
  183   174   173 1
  184   175   159 1
  185   176   159 1
  186   177   164 1
  187   178   168 1
  188   179   172 1
  189   180   179 1
  190   181   179 1
  191   182   179 1
  192   183   178 1
  193   184   178 1
  194   185   178 1
  195   186   177 1
  196   187   177 1
  197   188   177 1
  198   189   176 1
  199   190   176 1
  200   191   176 1
  201   192   175 1
  202   193   175 1
  203   194   175 1
  204   195   160 1
  205   196   160 1
  206   197   158 1
  207   198   158 1
  208   199   158 1
  209   200   157 1
  210   201   157 1
  211   202   157 1
  212   203   156 1
  213   204   156 1
  214   205   156 1
  215   206   155 1
  216   207   155 1
  217   208   155 1
  218   209   154 1
  219   210   154 1
  220   211   154 1
  221   212   141 1
  222   213   146 1
  223   214   145 1
  224   215   142 1
  225   216   142 1
  226   217   174 1
  227   218   173 1
  228   219   171 1
  229   220   170 1
  230   221   169 1
  231   222   140 1
  232   223   167 1
  233   224   166 1
  234   225   165 1
  235   226   163 1
  236   227   161 1
  237   228   139 1
  238   229   139 1
  239   230   153 1
  240   231   152 1
  241   232   150 1
  242   233   149 1
  243   234   148 1
  244   235   162 1
  245   65    153 1
  246   65    174 1
@<TRIPOS>SUBSTRUCTURE
      1 CLA               1 ****               0 ****  **** 
      2 LUT             138 ****               0 ****  **** 
