@<TRIPOS>MOLECULE
Cpptraj generated mol2 file.
  235   246     2     0     0
SMALL
USER_CHARGES


@<TRIPOS>ATOM
      1 CAA        78.3391   57.0882   35.0398 a2         1 CLA     -0.055900
      2 CAB        78.4840   61.3533   43.8411 c8         1 CLA     -0.148500
      3 CAC        71.4096   57.9133   43.3102 a2         1 CLA     -0.012600
      4 CAD        74.1116   54.9390   36.1497 ck         1 CLA      0.398800
      5 NA         77.4117   57.8051   38.3385 ns         1 CLA     -0.225500
      6 CBA        79.5407   57.0331   34.0478 a2         1 CLA     -0.135000
      7 CBB        79.5627   61.3470   44.6311 c0         1 CLA     -0.395200
      8 CBC        71.2671   56.4121   43.3478 a3         1 CLA     -0.037700
      9 CBD        75.6250   55.2678   35.9563 a1         1 CLA     -0.053900
     10 NB         77.2614   59.5177   40.7964 nm         1 CLA     -0.295700
     11 OBD        73.4776   54.2198   35.3844 o2         1 CLA     -0.494600
     12 CGA        79.9395   55.5351   33.6797 c4         1 CLA      0.827000
     13 CGD        76.5122   54.0647   35.7915 c4         1 CLA      0.655300
     14 ND         74.5061   57.0740   38.9214 nm         1 CLA     -0.291600
     15 CED        77.2076   51.8612   36.6521 a3         1 CLA      0.005400
     16 CHA        76.0465   56.2030   37.1414 cs         1 CLA     -0.123800
     17 CHB        79.1281   59.3727   39.1581 aa         1 CLA     -0.291900
     18 CHC        75.9679   59.8334   42.8155 aa         1 CLA     -0.090400
     19 CHD        72.5994   57.3861   40.3471 aa         1 CLA     -0.052000
     20 CMA        80.8744   57.2205   37.7202 a3         1 CLA     -0.230700
     21 CMB        80.6518   61.2155   41.2876 a3         1 CLA     -0.180800
     22 CMC        73.6941   59.7144   44.7756 a3         1 CLA     -0.134000
     23 CMD        71.1914   55.5441   38.2391 a3         1 CLA     -0.141100
     24 C1         80.7673   53.5722   34.7213 a2         1 CLA      0.023000
     25 C1A        77.2148   56.9532   37.3110 ac         1 CLA     -0.015100
     26 C1B        78.5569   59.8799   40.3556 cr         1 CLA      0.054700
     27 C1C        74.7822   59.2230   42.5298 cn         1 CLA     -0.005600
     28 C1D        73.2108   56.8038   39.2509 ap         1 CLA     -0.047300
     29 O1A        79.8766   54.8500   32.5884 o2         1 CLA     -0.610800
     30 O1D        77.3078   53.8402   34.8565 o2         1 CLA     -0.558200
     31 C2         81.0156   53.1651   36.1575 c8         1 CLA     -0.325100
     32 C2A        78.5127   56.8413   36.5473 a1         1 CLA      0.098600
     33 C2B        79.2303   60.6777   41.3917 cb         1 CLA      0.088500
     34 C2C        73.6805   59.1076   43.4027 cb         1 CLA      0.053700
     35 C2D        72.6598   55.9251   38.2662 cb         1 CLA      0.058900
     36 O2A        80.5401   55.0048   34.7992 o1         1 CLA     -0.437200
     37 O2D        76.4503   53.1633   36.8214 o1         1 CLA     -0.357600
     38 C3         81.8716   52.2764   36.6483 c5         1 CLA      0.031200
     39 C3A        79.4636   57.8775   37.1950 a1         1 CLA      0.166800
     40 C3B        78.3430   60.7453   42.5140 cb         1 CLA      0.035000
     41 C3C        72.7386   58.3668   42.6851 cb         1 CLA     -0.089900
     42 C3D        73.6910   55.6429   37.3444 cb         1 CLA     -0.035900
     43 C4         81.4296   50.9516   37.1296 a3         1 CLA     -0.053300
     44 C4A        78.6294   58.3730   38.3145 ac         1 CLA      0.001800
     45 C4B        77.1137   60.0043   42.0277 cn         1 CLA     -0.020900
     46 C4C        73.2852   58.0523   41.4069 cr         1 CLA     -0.044400
     47 C4D        74.8487   56.3212   37.8583 c6         1 CLA     -0.046000
     48 C5         83.3338   52.6828   36.6956 a2         1 CLA     -0.070400
     49 C6         83.5546   53.7638   37.7547 a2         1 CLA      0.043900
     50 C7         84.9471   53.6211   38.1481 a2         1 CLA     -0.150000
     51 C8         85.6342   54.7438   39.0134 a1         1 CLA      0.064200
     52 C9         87.2111   54.7265   38.9581 a3         1 CLA     -0.259300
     53 C10        85.2275   54.7889   40.5774 a2         1 CLA     -0.071900
     54 C11        83.7651   54.9997   40.8892 a2         1 CLA      0.014500
     55 C12        83.5054   55.5079   42.2627 a2         1 CLA     -0.112100
     56 C13        82.0608   56.0728   42.6483 a1         1 CLA      0.089200
     57 C14        81.6079   57.2252   41.7296 a3         1 CLA     -0.239100
     58 C15        81.9812   56.5273   44.1250 a2         1 CLA     -0.102200
     59 C16        82.8367   57.7472   44.5456 a2         1 CLA      0.023900
     60 C17        82.7047   58.2002   45.9782 a2         1 CLA     -0.105700
     61 C18        83.4892   59.4517   46.4159 a1         1 CLA      0.206800
     62 C19        82.9198   60.0367   47.7018 a3         1 CLA     -0.280100
     63 C20        85.0190   59.3553   46.3770 a3         1 CLA     -0.280100
     64 NC         74.5442   58.5993   41.3150 nx         1 CLA     -0.309200
     65 MG         75.9053   58.3643   39.7585 mg         1 CLA      0.895000
     66 HMD3       70.7254   55.6439   39.2217 dc         1 CLA      0.064300
     67 HMD2       70.7599   56.2047   37.5242 dc         1 CLA      0.064300
     68 HMD1       71.1260   54.4955   37.9293 dc         1 CLA      0.064300
     69 HMC3       74.2062   60.6768   44.7889 dc         1 CLA      0.052100
     70 HMC2       72.7104   59.8873   45.2520 dc         1 CLA      0.052100
     71 HMC1       74.2678   58.9609   45.3612 dc         1 CLA      0.052100
     72 HMB3       81.2916   60.3657   41.5317 dc         1 CLA      0.063600
     73 HMB2       80.7459   61.6027   40.3223 dc         1 CLA      0.063600
     74 HMB1       80.7835   62.0211   41.9785 dc         1 CLA      0.063600
     75 HMA3       81.5689   57.9204   38.1223 dc         1 CLA      0.058300
     76 HMA2       80.5742   56.6048   38.5384 dc         1 CLA      0.058300
     77 HMA1       81.3675   56.7373   36.9080 dc         1 CLA      0.058300
     78 HED3       76.9073   51.2986   35.7784 dc         1 CLA      0.079300
     79 HED2       78.3036   52.0242   36.5161 dc         1 CLA      0.079300
     80 HED1       76.9632   51.2094   37.5410 dc         1 CLA      0.079300
     81 HBC3       71.0964   55.9629   42.3436 dc         1 CLA      0.016300
     82 HBC2       72.1665   55.9075   43.6551 dc         1 CLA      0.016300
     83 HBC1       70.4352   55.9486   43.9532 dc         1 CLA      0.016300
     84 HBB2       79.4631   61.7402   45.6823 da         1 CLA      0.183000
     85 HBB1       80.5685   60.9342   44.4883 da         1 CLA      0.183000
     86 HBA2       79.2414   57.6203   33.1759 dc         1 CLA      0.029400
     87 HBA1       80.4641   57.4744   34.4994 dc         1 CLA      0.029400
     88 HAC2       71.3539   58.1850   44.3238 dc         1 CLA      0.029300
     89 HAC1       70.5355   58.4126   42.8157 dc         1 CLA      0.029300
     90 HAA2       77.4513   56.6982   34.6055 dc         1 CLA      0.028700
     91 HAA1       78.1237   58.1907   35.0861 dc         1 CLA      0.028700
     92 H203       85.3925   60.3019   46.6231 dc         1 CLA      0.065600
     93 H202       85.3202   58.5160   47.0232 dc         1 CLA      0.065600
     94 H201       85.3411   59.1393   45.3366 dc         1 CLA      0.065600
     95 H193       83.3105   61.0097   47.8064 dc         1 CLA      0.065600
     96 H192       81.8666   60.1104   47.6834 dc         1 CLA      0.065600
     97 H191       83.3312   59.3769   48.5086 dc         1 CLA      0.065600
     98 H172       81.6526   58.4715   46.0930 dc         1 CLA      0.027600
     99 H171       83.0504   57.3524   46.5659 dc         1 CLA      0.027600
    100 H162       83.8828   57.5844   44.5587 dc         1 CLA      0.002900
    101 H161       82.6231   58.4703   43.7918 dc         1 CLA      0.002900
    102 H152       80.9118   56.7395   44.2993 dc         1 CLA      0.029100
    103 H151       82.3194   55.6653   44.7322 dc         1 CLA      0.029100
    104 H143       81.2659   56.9396   40.7381 dc         1 CLA      0.063600
    105 H142       80.7519   57.5570   42.2156 dc         1 CLA      0.063600
    106 H141       82.3640   58.0728   41.7078 dc         1 CLA      0.063600
    107 H122       83.7119   54.7394   42.9810 dc         1 CLA      0.032500
    108 H121       84.1763   56.3580   42.4392 dc         1 CLA      0.032500
    109 H112       83.3542   55.8150   40.2597 dc         1 CLA      0.006600
    110 H111       83.1754   54.0836   40.8481 dc         1 CLA      0.006600
    111 H102       85.6526   53.9075   41.1166 dc         1 CLA      0.024100
    112 H101       85.7914   55.5539   41.0081 dc         1 CLA      0.024100
    113 HHD        71.5598   57.2097   40.5651 da         1 CLA      0.174300
    114 HHC        76.2131   60.1520   43.8436 da         1 CLA      0.136800
    115 HHB        80.0904   59.7089   38.8712 da         1 CLA      0.138300
    116 HBD        75.6957   55.6845   34.9581 dc         1 CLA      0.107700
    117 HAB        77.6388   61.8828   44.3448 da         1 CLA      0.155200
    118 H93        87.7935   55.2812   39.6349 dc         1 CLA      0.069500
    119 H92        87.5333   53.6233   39.0549 dc         1 CLA      0.069500
    120 H91        87.6393   55.0409   38.0156 dc         1 CLA      0.069500
    121 H8         85.1984   55.6860   38.5705 dc         1 CLA      0.029300
    122 H72        85.0397   52.6591   38.6657 dc         1 CLA      0.044400
    123 H71        85.6388   53.5829   37.3095 dc         1 CLA      0.044400
    124 H62        83.3453   54.7420   37.3011 dc         1 CLA      0.015600
    125 H61        82.8847   53.6182   38.6373 dc         1 CLA      0.015600
    126 H52        83.9887   51.8593   36.8174 dc         1 CLA      0.033200
    127 H51        83.5790   53.1614   35.7626 dc         1 CLA      0.033200
    128 H43        80.3474   50.9275   36.9772 dc         1 CLA      0.037000
    129 H42        81.9677   50.1609   36.6097 dc         1 CLA      0.037000
    130 H41        81.6185   50.7586   38.1707 dc         1 CLA      0.037000
    131 H3A        79.8168   58.6934   36.5449 dc         1 CLA      0.041100
    132 H2A        78.9667   55.8509   36.6497 dc         1 CLA      0.083100
    133 H2         80.9218   53.9541   36.8859 da         1 CLA      0.180900
    134 H18        83.3506   60.1041   45.5313 dc         1 CLA     -0.003900
    135 H13        81.3607   55.2126   42.4999 dc         1 CLA      0.019700
    136 H12        79.9013   52.9669   34.4090 dc         1 CLA      0.120400
    137 H11        81.6038   53.2439   34.0770 dc         1 CLA      0.120400
    138 C1         67.7593   59.9332   50.1710 Z1         2 LUT      0.509236
    139 C2         66.2933   59.9970   50.8792 Z2         2 LUT     -0.434695
    140 C3         65.7659   61.3938   51.0863 Z3         2 LUT      0.437453
    141 O3         65.3992   61.7084   52.4012 S1         2 LUT     -0.547129
    142 C4         66.5090   62.5255   50.4293 Z4         2 LUT     -0.468603
    143 C5         67.1115   62.1333   49.1113 Z5         2 LUT      0.279246
    144 C6         67.8689   61.0293   48.9761 Z6         2 LUT     -0.305473
    145 C7         68.1513   60.5826   47.5895 Z7         2 LUT      0.069402
    146 C8         68.9207   61.3223   46.6927 Z8         2 LUT     -0.191631
    147 C9         69.2470   61.0642   45.2523 Z9         2 LUT      0.196698
    148 C10        70.2827   61.8310   44.7896 Y1         2 LUT     -0.208611
    149 C11        70.9239   61.8463   43.4687 Y2         2 LUT      0.030784
    150 C12        72.0319   62.5650   43.2212 Y3         2 LUT     -0.220316
    151 C13        72.9609   62.5439   42.1088 Y4         2 LUT      0.215937
    152 C14        74.1883   63.1229   42.3368 Y5         2 LUT     -0.185793
    153 C15        75.3195   63.3259   41.5109 Y6         2 LUT     -0.057835
    154 C16        68.0451   58.5167   49.7883 Y7         2 LUT     -0.405615
    155 C17        68.7792   60.2785   51.3252 Y7         2 LUT     -0.405615
    156 C18        66.3824   62.7462   47.9884 Y9         2 LUT     -0.369639
    157 C19        68.5291   60.1402   44.3769 W1         2 LUT     -0.333362
    158 C20        72.6196   61.7467   40.9315 W2         2 LUT     -0.323439
    159 C21        87.2605   64.2397   35.8671 Z1         2 LUT      0.406104
    160 C22        88.0256   63.9366   34.5278 Z2         2 LUT     -0.404965
    161 C23        88.0747   65.0216   33.4299 Z3         2 LUT      0.391255
    162 O23        88.9565   64.5190   32.4420 S1         2 LUT     -0.528210
    163 C24        86.6531   65.5173   33.2168 W6         2 LUT     -0.258361
    164 C25        85.6383   65.4636   34.1165 Z5         2 LUT      0.133546
    165 C26        85.7964   64.6770   35.4473 W8         2 LUT     -0.147008
    166 C27        85.0549   65.2733   36.6569 Z7         2 LUT      0.023843
    167 C28        83.9154   64.7477   37.2337 Z8         2 LUT     -0.216987
    168 C29        83.2583   65.0174   38.4637 Z9         2 LUT      0.206524
    169 C30        82.0355   64.4622   38.6489 Y1         2 LUT     -0.215556
    170 C31        81.1502   64.7278   39.7800 Y2         2 LUT      0.025142
    171 C32        79.9129   64.1448   39.9751 Y3         2 LUT     -0.212209
    172 C33        78.9315   64.3456   41.0442 Y4         2 LUT      0.240937
    173 C34        77.6327   63.8412   40.9033 Y5         2 LUT     -0.218862
    174 C35        76.4921   63.9319   41.7541 Y6         2 LUT     -0.023547
    175 C36        88.1586   65.3186   36.5484 Y7         2 LUT     -0.393485
    176 C37        87.2187   62.9650   36.8514 Y7         2 LUT     -0.393485
    177 C38        84.3294   66.1902   33.8120 Y9         2 LUT     -0.387526
    178 C39        83.8516   66.1129   39.3334 W1         2 LUT     -0.322618
    179 C40        79.2485   65.4891   41.9833 W2         2 LUT     -0.358472
    180 H403       80.1610   65.3743   42.6423 R7         2 LUT      0.097720
    181 H402       79.4859   66.4315   41.4426 R7         2 LUT      0.097720
    182 H401       78.5047   65.8605   42.5999 R7         2 LUT      0.097720
    183 H393       83.8465   65.8910   40.3952 R4         2 LUT      0.082505
    184 H392       84.8622   66.3676   39.0725 R4         2 LUT      0.082505
    185 H391       83.3587   67.1198   39.1591 R4         2 LUT      0.082505
    186 H383       83.5561   65.6127   33.3622 R1         2 LUT      0.104030
    187 H382       83.9439   66.5513   34.7625 R1         2 LUT      0.104030
    188 H381       84.5136   67.1098   33.2414 R1         2 LUT      0.104030
    189 H373       88.2863   62.8041   37.2886 T4         2 LUT      0.089537
    190 H372       86.4978   63.0717   37.6981 T4         2 LUT      0.089537
    191 H371       86.8497   62.0855   36.2783 T4         2 LUT      0.089537
    192 H363       87.9337   65.4198   37.6290 T4         2 LUT      0.089537
    193 H362       89.2058   65.1725   36.4878 T4         2 LUT      0.089537
    194 H361       87.8660   66.2774   36.0586 T4         2 LUT      0.089537
    195 H222       89.0483   63.7443   34.8156 U2         2 LUT      0.127376
    196 H221       87.5838   63.0380   34.0344 U2         2 LUT      0.127376
    197 H203       73.1692   61.9944   40.0974 R7         2 LUT      0.087068
    198 H202       72.8193   60.7382   41.1677 R7         2 LUT      0.087068
    199 H201       71.5574   61.6513   40.6156 R7         2 LUT      0.087068
    200 H193       68.0307   60.4944   43.4704 R4         2 LUT      0.089716
    201 H192       69.1148   59.2663   44.0318 R4         2 LUT      0.089716
    202 H191       67.6715   59.6856   44.8957 R4         2 LUT      0.089716
    203 H183       65.4862   62.2676   47.8472 R1         2 LUT      0.094572
    204 H182       65.9944   63.7398   48.2200 R1         2 LUT      0.094572
    205 H181       66.8841   62.8415   47.0636 R1         2 LUT      0.094572
    206 H173       69.7852   60.4994   50.9155 T4         2 LUT      0.093752
    207 H172       68.4917   61.2053   51.8219 T4         2 LUT      0.093752
    208 H171       68.9686   59.4777   52.2003 T4         2 LUT      0.093752
    209 H163       68.0401   57.9169   50.6519 T4         2 LUT      0.093752
    210 H162       67.2893   58.1463   49.1398 T4         2 LUT      0.093752
    211 H161       68.9900   58.5209   49.2836 T4         2 LUT      0.093752
    212 HO3        66.1670   61.5767   53.0293 Q1         2 LUT      0.300121
    213 H8         69.4052   62.2479   47.0761 U7         2 LUT      0.080784
    214 H7         67.6856   59.6529   47.2293 U6         2 LUT      0.042190
    215 H42        65.7038   63.2573   50.4375 U5         2 LUT      0.145166
    216 H41        67.2577   63.0123   51.1504 U5         2 LUT      0.145166
    217 H35        76.7001   64.4643   42.7338 T3         2 LUT      0.077919
    218 H34        77.3411   63.2555   40.0203 T2         2 LUT      0.073626
    219 H32        79.5050   63.3974   39.3061 T1         2 LUT      0.092510
    220 H31        81.5136   65.4664   40.4822 U9         2 LUT      0.070048
    221 H30        81.6290   63.7750   37.8932 U8         2 LUT      0.085442
    222 H3         64.8625   61.3048   50.4804 U3         2 LUT     -0.031596
    223 H28        83.4016   63.9435   36.6929 U7         2 LUT      0.084728
    224 H27        85.6518   65.9655   37.1488 U6         2 LUT      0.087291
    225 H26        85.2314   63.7085   35.3466 Q6         2 LUT      0.075325
    226 H24        86.4339   65.9772   32.1835 Q5         2 LUT      0.094482
    227 H23        88.6912   65.9039   33.8294 U3         2 LUT     -0.024869
    228 H22        65.6265   59.4895   50.1979 U2         2 LUT      0.127376
    229 H21        66.2357   59.4738   51.7523 U2         2 LUT      0.127376
    230 H15        75.2641   62.7730   40.5980 T3         2 LUT      0.093200
    231 H14        74.3394   63.7043   43.2248 T2         2 LUT      0.068865
    232 H12        72.4251   63.2233   44.0517 T1         2 LUT      0.095507
    233 H11        70.5409   61.2336   42.7154 U9         2 LUT      0.068930
    234 H10        70.7561   62.4915   45.5005 U8         2 LUT      0.083911
    235 H1         88.4846   64.2618   31.6426 Q1         2 LUT      0.297311
@<TRIPOS>BOND
    1     6     1 1
    2     7     2 1
    3     8     3 1
    4     9     4 1
    5    11     4 1
    6    12     6 1
    7    13     9 1
    8    16     9 1
    9    25     5 1
   10    25    16 1
   11    26    10 1
   12    26    17 1
   13    27    18 1
   14    28    14 1
   15    28    19 1
   16    29    12 1
   17    30    13 1
   18    31    24 1
   19    32     1 1
   20    32    25 1
   21    33    21 1
   22    33    26 1
   23    34    22 1
   24    34    27 1
   25    35    23 1
   26    35    28 1
   27    36    12 1
   28    36    24 1
   29    37    13 1
   30    37    15 1
   31    38    31 1
   32    39    20 1
   33    39    32 1
   34    40     2 1
   35    40    33 1
   36    41     3 1
   37    41    34 1
   38    42     4 1
   39    42    35 1
   40    43    38 1
   41    44     5 1
   42    44    17 1
   43    44    39 1
   44    45    10 1
   45    45    18 1
   46    45    40 1
   47    46    19 1
   48    46    41 1
   49    47    14 1
   50    47    16 1
   51    47    42 1
   52    48    38 1
   53    49    48 1
   54    50    49 1
   55    51    50 1
   56    52    51 1
   57    53    51 1
   58    54    53 1
   59    55    54 1
   60    56    55 1
   61    57    56 1
   62    58    56 1
   63    59    58 1
   64    60    59 1
   65    61    60 1
   66    62    61 1
   67    63    61 1
   68    64    27 1
   69    64    46 1
   70    65     5 1
   71    65    10 1
   72    65    64 1
   73    65    14 1
   74    66    23 1
   75    67    23 1
   76    68    23 1
   77    69    22 1
   78    70    22 1
   79    71    22 1
   80    72    21 1
   81    73    21 1
   82    74    21 1
   83    75    20 1
   84    76    20 1
   85    77    20 1
   86    78    15 1
   87    79    15 1
   88    80    15 1
   89    81     8 1
   90    82     8 1
   91    83     8 1
   92    84     7 1
   93    85     7 1
   94    86     6 1
   95    87     6 1
   96    88     3 1
   97    89     3 1
   98    90     1 1
   99    91     1 1
  100    92    63 1
  101    93    63 1
  102    94    63 1
  103    95    62 1
  104    96    62 1
  105    97    62 1
  106    98    60 1
  107    99    60 1
  108   100    59 1
  109   101    59 1
  110   102    58 1
  111   103    58 1
  112   104    57 1
  113   105    57 1
  114   106    57 1
  115   107    55 1
  116   108    55 1
  117   109    54 1
  118   110    54 1
  119   111    53 1
  120   112    53 1
  121   113    19 1
  122   114    18 1
  123   115    17 1
  124   116     9 1
  125   117     2 1
  126   118    52 1
  127   119    52 1
  128   120    52 1
  129   121    51 1
  130   122    50 1
  131   123    50 1
  132   124    49 1
  133   125    49 1
  134   126    48 1
  135   127    48 1
  136   128    43 1
  137   129    43 1
  138   130    43 1
  139   131    39 1
  140   132    32 1
  141   133    31 1
  142   134    61 1
  143   135    56 1
  144   136    24 1
  145   137    24 1
  146   139   138 1
  147   140   139 1
  148   141   140 1
  149   142   140 1
  150   143   142 1
  151   144   138 1
  152   144   143 1
  153   145   144 1
  154   146   145 1
  155   147   146 1
  156   148   147 1
  157   149   148 1
  158   150   149 1
  159   151   150 1
  160   152   151 1
  161   153   152 1
  162   154   138 1
  163   155   138 1
  164   156   143 1
  165   157   147 1
  166   158   151 1
  167   160   159 1
  168   161   160 1
  169   162   161 1
  170   163   161 1
  171   164   163 1
  172   165   159 1
  173   165   164 1
  174   166   165 1
  175   167   166 1
  176   168   167 1
  177   169   168 1
  178   170   169 1
  179   171   170 1
  180   172   171 1
  181   173   172 1
  182   174   153 1
  183   174   173 1
  184   175   159 1
  185   176   159 1
  186   177   164 1
  187   178   168 1
  188   179   172 1
  189   180   179 1
  190   181   179 1
  191   182   179 1
  192   183   178 1
  193   184   178 1
  194   185   178 1
  195   186   177 1
  196   187   177 1
  197   188   177 1
  198   189   176 1
  199   190   176 1
  200   191   176 1
  201   192   175 1
  202   193   175 1
  203   194   175 1
  204   195   160 1
  205   196   160 1
  206   197   158 1
  207   198   158 1
  208   199   158 1
  209   200   157 1
  210   201   157 1
  211   202   157 1
  212   203   156 1
  213   204   156 1
  214   205   156 1
  215   206   155 1
  216   207   155 1
  217   208   155 1
  218   209   154 1
  219   210   154 1
  220   211   154 1
  221   212   141 1
  222   213   146 1
  223   214   145 1
  224   215   142 1
  225   216   142 1
  226   217   174 1
  227   218   173 1
  228   219   171 1
  229   220   170 1
  230   221   169 1
  231   222   140 1
  232   223   167 1
  233   224   166 1
  234   225   165 1
  235   226   163 1
  236   227   161 1
  237   228   139 1
  238   229   139 1
  239   230   153 1
  240   231   152 1
  241   232   150 1
  242   233   149 1
  243   234   148 1
  244   235   162 1
  245   65    153 1
  246   65    174 1
@<TRIPOS>SUBSTRUCTURE
      1 CLA               1 ****               0 ****  **** 
      2 LUT             138 ****               0 ****  **** 
