@<TRIPOS>MOLECULE
Cpptraj generated mol2 file.
  235   246     2     0     0
SMALL
USER_CHARGES


@<TRIPOS>ATOM
      1 CAA        79.4184   59.1664   33.8626 a2         1 CLA     -0.055900
      2 CAB        78.4522   62.5789   43.0108 c8         1 CLA     -0.148500
      3 CAC        72.1315   57.7481   42.0700 a2         1 CLA     -0.012600
      4 CAD        75.2968   56.1915   34.7270 ck         1 CLA      0.398800
      5 NA         78.1266   59.1955   37.2637 ns         1 CLA     -0.225500
      6 CBA        80.7133   58.9457   32.9941 a2         1 CLA     -0.135000
      7 CBB        79.2041   63.6883   43.3573 c0         1 CLA     -0.395200
      8 CBC        72.2956   56.2769   42.1816 a3         1 CLA     -0.037700
      9 CBD        76.6813   56.9576   34.5518 a1         1 CLA     -0.053900
     10 NB         77.7377   60.5067   39.9592 nm         1 CLA     -0.295700
     11 OBD        74.7650   55.4475   33.8606 o2         1 CLA     -0.494600
     12 CGA        81.1722   57.5330   32.7006 c4         1 CLA      0.827000
     13 CGD        77.7973   56.0327   34.2730 c4         1 CLA      0.655300
     14 ND         75.4241   57.9974   37.7863 nm         1 CLA     -0.291600
     15 CED        79.1763   54.4425   35.3326 a3         1 CLA      0.005400
     16 CHA        76.8951   57.7834   35.7984 cs         1 CLA     -0.123800
     17 CHB        79.7116   60.6388   38.5150 aa         1 CLA     -0.291900
     18 CHC        76.3171   60.5972   41.9449 aa         1 CLA     -0.090400
     19 CHD        73.5054   57.6328   39.2607 aa         1 CLA     -0.052000
     20 CMA        81.5149   58.6170   36.8769 a3         1 CLA     -0.230700
     21 CMB        80.7383   62.6569   40.4857 a3         1 CLA     -0.180800
     22 CMC        73.9756   59.7619   43.9270 a3         1 CLA     -0.134000
     23 CMD        72.3388   55.9555   36.8595 a3         1 CLA     -0.141100
     24 C1         82.2457   55.6568   33.5866 a2         1 CLA      0.023000
     25 C1A        78.0615   58.5398   36.0533 ac         1 CLA     -0.015100
     26 C1B        79.0100   60.9792   39.7070 cr         1 CLA      0.054700
     27 C1C        75.3213   59.7108   41.6116 cn         1 CLA     -0.005600
     28 C1D        74.1409   57.4395   38.0348 ap         1 CLA     -0.047300
     29 O1A        81.0355   56.9117   31.6627 o2         1 CLA     -0.610800
     30 O1D        78.6246   56.1206   33.3590 o2         1 CLA     -0.558200
     31 C2         82.8485   55.0161   34.8827 c8         1 CLA     -0.325100
     32 C2A        79.3918   58.5657   35.2819 a1         1 CLA      0.098600
     33 C2B        79.4614   61.8544   40.6482 cb         1 CLA      0.088500
     34 C2C        74.2002   59.2248   42.5065 cb         1 CLA      0.053700
     35 C2D        73.7330   56.5489   36.9406 cb         1 CLA      0.058900
     36 O2A        81.7357   56.9930   33.8408 o1         1 CLA     -0.437200
     37 O2D        77.8871   55.1289   35.2937 o1         1 CLA     -0.357600
     38 C3         83.6194   53.9003   34.9619 c5         1 CLA      0.031200
     39 C3A        80.2366   59.3869   36.3233 a1         1 CLA      0.166800
     40 C3B        78.5229   61.8914   41.6865 cb         1 CLA      0.035000
     41 C3C        73.3711   58.4233   41.7147 cb         1 CLA     -0.089900
     42 C3D        74.8253   56.6276   36.0481 cb         1 CLA     -0.035900
     43 C4         83.0451   52.5121   34.9966 a3         1 CLA     -0.053300
     44 C4A        79.2852   59.8845   37.3937 ac         1 CLA      0.001800
     45 C4B        77.4462   60.9629   41.1948 cn         1 CLA     -0.020900
     46 C4C        73.9660   58.3550   40.3780 cr         1 CLA     -0.044400
     47 C4D        75.7693   57.5400   36.5573 c6         1 CLA     -0.046000
     48 C5         85.1428   53.9558   34.8378 a2         1 CLA     -0.070400
     49 C6         85.7197   55.3694   35.3755 a2         1 CLA      0.043900
     50 C7         85.8361   55.4625   36.9052 a2         1 CLA     -0.150000
     51 C8         85.9420   56.9495   37.4642 a1         1 CLA      0.064200
     52 C9         86.8611   57.8694   36.7280 a3         1 CLA     -0.259300
     53 C10        86.2186   56.9750   38.9781 a2         1 CLA     -0.071900
     54 C11        86.0968   58.3462   39.7739 a2         1 CLA      0.014500
     55 C12        86.4235   57.9855   41.2218 a2         1 CLA     -0.112100
     56 C13        86.1604   59.1676   42.2806 a1         1 CLA      0.089200
     57 C14        87.3299   60.2274   42.1627 a3         1 CLA     -0.239100
     58 C15        86.0402   58.6606   43.7008 a2         1 CLA     -0.102200
     59 C16        85.8425   59.8155   44.8097 a2         1 CLA      0.023900
     60 C17        85.5719   59.1986   46.2166 a2         1 CLA     -0.105700
     61 C18        85.6247   60.2236   47.3589 a1         1 CLA      0.206800
     62 C19        84.4985   61.2685   47.2271 a3         1 CLA     -0.280100
     63 C20        85.5354   59.4889   48.7480 a3         1 CLA     -0.280100
     64 NC         75.1928   59.0897   40.3270 nx         1 CLA     -0.309200
     65 MG         76.5742   59.2934   38.7515 mg         1 CLA      0.895000
     66 HMD3       71.9737   55.8157   37.8900 dc         1 CLA      0.064300
     67 HMD2       71.7074   56.6787   36.4086 dc         1 CLA      0.064300
     68 HMD1       72.3320   54.9504   36.2803 dc         1 CLA      0.064300
     69 HMC3       74.8986   59.6515   44.4836 dc         1 CLA      0.052100
     70 HMC2       73.5429   60.8212   43.9774 dc         1 CLA      0.052100
     71 HMC1       73.2702   59.0606   44.3906 dc         1 CLA      0.052100
     72 HMB3       80.7487   63.1743   39.5442 dc         1 CLA      0.063600
     73 HMB2       80.8779   63.4403   41.1501 dc         1 CLA      0.063600
     74 HMB1       81.7132   62.1068   40.4465 dc         1 CLA      0.063600
     75 HMA3       81.3169   57.6272   37.2546 dc         1 CLA      0.058300
     76 HMA2       82.2782   58.4886   36.0885 dc         1 CLA      0.058300
     77 HMA1       82.0647   59.0800   37.6725 dc         1 CLA      0.058300
     78 HED3       79.0681   53.5386   35.8730 dc         1 CLA      0.079300
     79 HED2       79.5416   54.1688   34.3783 dc         1 CLA      0.079300
     80 HED1       80.0169   54.9783   35.8548 dc         1 CLA      0.079300
     81 HBC3       71.3430   55.8333   42.4108 dc         1 CLA      0.016300
     82 HBC2       72.5530   55.9496   41.1461 dc         1 CLA      0.016300
     83 HBC1       73.1016   55.9944   42.8186 dc         1 CLA      0.016300
     84 HBB2       79.0910   64.1130   44.3865 da         1 CLA      0.183000
     85 HBB1       79.8036   64.2510   42.6247 da         1 CLA      0.183000
     86 HBA2       80.5001   59.3739   32.0469 dc         1 CLA      0.029400
     87 HBA1       81.5823   59.5281   33.3157 dc         1 CLA      0.029400
     88 HAC2       71.5852   58.0656   42.9969 dc         1 CLA      0.029300
     89 HAC1       71.4272   57.7394   41.2385 dc         1 CLA      0.029300
     90 HAA2       78.6412   58.7544   33.2517 dc         1 CLA      0.028700
     91 HAA1       79.2107   60.2421   33.8941 dc         1 CLA      0.028700
     92 H203       86.3669   58.8643   48.8794 dc         1 CLA      0.065600
     93 H202       85.5765   60.0855   49.6007 dc         1 CLA      0.065600
     94 H201       84.6860   58.8124   48.6641 dc         1 CLA      0.065600
     95 H193       84.5671   61.8358   46.3385 dc         1 CLA      0.065600
     96 H192       83.5459   60.8250   47.3814 dc         1 CLA      0.065600
     97 H191       84.6836   62.0755   48.0012 dc         1 CLA      0.065600
     98 H172       84.6386   58.6609   46.0603 dc         1 CLA      0.027600
     99 H171       86.3583   58.4239   46.3847 dc         1 CLA      0.027600
    100 H162       86.7906   60.3821   44.8959 dc         1 CLA      0.002900
    101 H161       85.0783   60.5265   44.5294 dc         1 CLA      0.002900
    102 H152       85.2274   57.9018   43.8080 dc         1 CLA      0.029100
    103 H151       86.9553   58.1258   43.7885 dc         1 CLA      0.029100
    104 H143       88.0738   60.2190   42.9753 dc         1 CLA      0.063600
    105 H142       87.7959   60.1007   41.1760 dc         1 CLA      0.063600
    106 H141       86.8539   61.1621   42.2158 dc         1 CLA      0.063600
    107 H122       85.6553   57.1876   41.4114 dc         1 CLA      0.032500
    108 H121       87.4419   57.6522   41.3226 dc         1 CLA      0.032500
    109 H112       86.8520   58.9996   39.4106 dc         1 CLA      0.006600
    110 H111       85.1138   58.7924   39.6320 dc         1 CLA      0.006600
    111 H102       85.5861   56.2581   39.4130 dc         1 CLA      0.024100
    112 H101       87.2645   56.6255   39.0350 dc         1 CLA      0.024100
    113 HHD        72.5079   57.2091   39.3268 da         1 CLA      0.174300
    114 HHC        76.3716   61.0033   42.9744 da         1 CLA      0.136800
    115 HHB        80.7330   60.9964   38.4129 da         1 CLA      0.138300
    116 HBD        76.5987   57.6063   33.6913 dc         1 CLA      0.107700
    117 HAB        77.7091   62.2297   43.7818 da         1 CLA      0.155200
    118 H93        86.4732   57.8882   35.7168 dc         1 CLA      0.069500
    119 H92        86.7524   58.8695   37.1789 dc         1 CLA      0.069500
    120 H91        87.8387   57.4655   36.8943 dc         1 CLA      0.069500
    121 H8         84.9473   57.3270   37.4170 dc         1 CLA      0.029300
    122 H72        85.0415   54.9072   37.3925 dc         1 CLA      0.044400
    123 H71        86.8366   55.0058   36.9898 dc         1 CLA      0.044400
    124 H62        86.6991   55.6166   34.9309 dc         1 CLA      0.015600
    125 H61        84.9739   56.1106   35.2107 dc         1 CLA      0.015600
    126 H52        85.7835   53.1905   35.3011 dc         1 CLA      0.033200
    127 H51        85.4094   53.9539   33.7308 dc         1 CLA      0.033200
    128 H43        83.2866   51.9501   34.1246 dc         1 CLA      0.037000
    129 H42        83.6598   52.0784   35.7800 dc         1 CLA      0.037000
    130 H41        82.0339   52.3791   35.2186 dc         1 CLA      0.037000
    131 H3A        80.6617   60.2545   35.8476 dc         1 CLA      0.041100
    132 H2A        79.6504   57.5448   35.2658 dc         1 CLA      0.083100
    133 H2         82.5609   55.5114   35.8142 da         1 CLA      0.180900
    134 H18        86.6038   60.7267   47.3191 dc         1 CLA     -0.003900
    135 H13        85.2081   59.6599   41.9621 dc         1 CLA      0.019700
    136 H12        81.4425   55.0214   33.2302 dc         1 CLA      0.120400
    137 H11        83.0272   55.7617   32.8352 dc         1 CLA      0.120400
    138 C1         68.7570   61.1973   49.3481 Z1         2 LUT      0.509236
    139 C2         67.4582   60.8922   50.1098 Z2         2 LUT     -0.434695
    140 C3         66.5858   62.0733   50.4791 Z3         2 LUT      0.437453
    141 O3         66.6363   62.5654   51.8572 S1         2 LUT     -0.547129
    142 C4         66.6690   63.2245   49.5446 Z4         2 LUT     -0.468603
    143 C5         67.4453   62.9769   48.2451 Z5         2 LUT      0.279246
    144 C6         68.4624   62.0860   48.1640 Z6         2 LUT     -0.305473
    145 C7         69.0120   61.6781   46.8455 Z7         2 LUT      0.069402
    146 C8         69.8432   62.4930   46.1389 Z8         2 LUT     -0.191631
    147 C9         70.6908   62.1880   44.9113 Z9         2 LUT      0.196698
    148 C10        71.6540   63.0885   44.4894 Y1         2 LUT     -0.208611
    149 C11        72.4116   63.1358   43.2558 Y2         2 LUT      0.030784
    150 C12        73.5516   63.8861   43.0981 Y3         2 LUT     -0.220316
    151 C13        74.4875   63.7593   42.0101 Y4         2 LUT      0.215937
    152 C14        75.6016   64.5568   41.9994 Y5         2 LUT     -0.185793
    153 C15        76.6902   64.5944   41.0493 Y6         2 LUT     -0.057835
    154 C16        69.4266   59.7912   49.0269 Y7         2 LUT     -0.405615
    155 C17        69.7464   61.9687   50.2759 Y7         2 LUT     -0.405615
    156 C18        66.9770   63.9298   47.2012 Y9         2 LUT     -0.369639
    157 C19        70.3325   61.0322   44.0141 W1         2 LUT     -0.333362
    158 C20        74.1000   62.8861   40.8849 W2         2 LUT     -0.323439
    159 C21        87.9598   66.4712   34.8781 Z1         2 LUT      0.406104
    160 C22        88.7587   65.9414   33.6915 Z2         2 LUT     -0.404965
    161 C23        89.0044   66.7979   32.4834 Z3         2 LUT      0.391255
    162 O23        89.8387   65.9967   31.5835 S1         2 LUT     -0.528210
    163 C24        87.6737   67.5240   32.1427 W6         2 LUT     -0.258361
    164 C25        86.5254   67.5477   32.8704 Z5         2 LUT      0.133546
    165 C26        86.5597   66.9067   34.3747 W8         2 LUT     -0.147008
    166 C27        85.6849   67.5784   35.4024 Z7         2 LUT      0.023843
    167 C28        84.6575   67.0092   36.0869 Z8         2 LUT     -0.216987
    168 C29        84.0441   67.5016   37.2594 Z9         2 LUT      0.206524
    169 C30        83.0056   66.7502   37.7193 Y1         2 LUT     -0.215556
    170 C31        82.1982   66.9221   38.9063 Y2         2 LUT      0.025142
    171 C32        81.1052   66.1306   39.1997 Y3         2 LUT     -0.212209
    172 C33        80.0857   66.2357   40.3403 Y4         2 LUT      0.240937
    173 C34        78.9680   65.4614   40.3439 Y5         2 LUT     -0.218862
    174 C35        77.7767   65.4462   41.1402 Y6         2 LUT     -0.023547
    175 C36        88.7783   67.7263   35.4060 Y7         2 LUT     -0.393485
    176 C37        87.9004   65.3829   35.9936 Y7         2 LUT     -0.393485
    177 C38        85.2585   68.3252   32.4398 Y9         2 LUT     -0.387526
    178 C39        84.6478   68.6528   38.1086 W1         2 LUT     -0.322618
    179 C40        80.3536   67.1583   41.4136 W2         2 LUT     -0.358472
    180 H403       79.9591   68.1449   41.2432 R7         2 LUT      0.097720
    181 H402       79.8277   66.7992   42.3236 R7         2 LUT      0.097720
    182 H401       81.4529   67.2378   41.6736 R7         2 LUT      0.097720
    183 H393       84.0188   68.9463   39.0293 R4         2 LUT      0.082505
    184 H392       85.6301   68.3733   38.3864 R4         2 LUT      0.082505
    185 H391       84.8296   69.5838   37.5569 R4         2 LUT      0.082505
    186 H383       85.0709   69.1610   33.1843 R1         2 LUT      0.104030
    187 H382       85.2864   68.7282   31.4127 R1         2 LUT      0.104030
    188 H381       84.3442   67.7284   32.3179 R1         2 LUT      0.104030
    189 H373       87.4365   64.4115   35.6994 T4         2 LUT      0.089537
    190 H372       88.9020   65.1489   36.3464 T4         2 LUT      0.089537
    191 H371       87.3429   65.7429   36.9027 T4         2 LUT      0.089537
    192 H363       88.4618   68.5590   34.8290 T4         2 LUT      0.089537
    193 H362       88.6354   67.9555   36.4814 T4         2 LUT      0.089537
    194 H361       89.8674   67.6256   35.1754 T4         2 LUT      0.089537
    195 H222       89.7164   65.5860   33.9312 U2         2 LUT      0.127376
    196 H221       88.2801   65.0342   33.3472 U2         2 LUT      0.127376
    197 H203       74.9149   62.8652   40.1612 R7         2 LUT      0.087068
    198 H202       73.9407   61.8899   41.1851 R7         2 LUT      0.087068
    199 H201       73.1722   63.1095   40.3720 R7         2 LUT      0.087068
    200 H193       70.1828   61.4194   43.0326 R4         2 LUT      0.089716
    201 H192       71.1744   60.3618   43.9974 R4         2 LUT      0.089716
    202 H191       69.3766   60.5763   44.2070 R4         2 LUT      0.089716
    203 H183       67.0540   63.4046   46.2034 R1         2 LUT      0.094572
    204 H182       65.8814   64.0209   47.2600 R1         2 LUT      0.094572
    205 H181       67.5549   64.8673   47.1996 R1         2 LUT      0.094572
    206 H173       69.9853   61.3865   51.1671 T4         2 LUT      0.093752
    207 H172       70.6206   62.1916   49.6739 T4         2 LUT      0.093752
    208 H171       69.4106   62.9035   50.7361 T4         2 LUT      0.093752
    209 H163       68.7011   59.2126   48.4949 T4         2 LUT      0.093752
    210 H162       70.3443   60.0510   48.5328 T4         2 LUT      0.093752
    211 H161       69.7989   59.2019   49.8596 T4         2 LUT      0.093752
    212 HO3        66.2221   61.7966   52.3346 Q1         2 LUT      0.300121
    213 H8         70.1300   63.3779   46.6786 U7         2 LUT      0.080784
    214 H7         68.9238   60.6819   46.4440 U6         2 LUT      0.042190
    215 H42        65.5861   63.5909   49.5034 U5         2 LUT      0.145166
    216 H41        67.2139   64.0007   50.1198 U5         2 LUT      0.145166
    217 H35        77.7369   66.1043   42.0324 T3         2 LUT      0.077919
    218 H34        78.8813   64.7096   39.5677 T2         2 LUT      0.073626
    219 H32        80.9207   65.5377   38.4224 T1         2 LUT      0.092510
    220 H31        82.3857   67.6255   39.6265 U9         2 LUT      0.070048
    221 H30        82.7442   65.9954   36.9790 U8         2 LUT      0.085442
    222 H3         65.5656   61.7163   50.3187 U3         2 LUT     -0.031596
    223 H28        84.1666   66.1554   35.5458 U7         2 LUT      0.084728
    224 H27        86.2032   68.5136   35.6839 U6         2 LUT      0.087291
    225 H26        86.0908   65.9521   34.2302 Q6         2 LUT      0.075325
    226 H24        87.6407   68.0333   31.1814 Q5         2 LUT      0.094482
    227 H23        89.5203   67.7030   32.9099 U3         2 LUT     -0.024869
    228 H22        66.8314   60.1354   49.4780 U2         2 LUT      0.127376
    229 H21        67.7828   60.4195   51.0374 U2         2 LUT      0.127376
    230 H15        76.8586   63.9017   40.1766 T3         2 LUT      0.093200
    231 H14        75.6864   65.2880   42.7739 T2         2 LUT      0.068865
    232 H12        73.8190   64.4964   43.9552 T1         2 LUT      0.095507
    233 H11        72.1308   62.3940   42.5176 U9         2 LUT      0.068930
    234 H10        71.9119   63.9142   45.1447 U8         2 LUT      0.083911
    235 H1         89.6865   66.3013   30.6746 Q1         2 LUT      0.297311
@<TRIPOS>BOND
    1     6     1 1
    2     7     2 1
    3     8     3 1
    4     9     4 1
    5    11     4 1
    6    12     6 1
    7    13     9 1
    8    16     9 1
    9    25     5 1
   10    25    16 1
   11    26    10 1
   12    26    17 1
   13    27    18 1
   14    28    14 1
   15    28    19 1
   16    29    12 1
   17    30    13 1
   18    31    24 1
   19    32     1 1
   20    32    25 1
   21    33    21 1
   22    33    26 1
   23    34    22 1
   24    34    27 1
   25    35    23 1
   26    35    28 1
   27    36    12 1
   28    36    24 1
   29    37    13 1
   30    37    15 1
   31    38    31 1
   32    39    20 1
   33    39    32 1
   34    40     2 1
   35    40    33 1
   36    41     3 1
   37    41    34 1
   38    42     4 1
   39    42    35 1
   40    43    38 1
   41    44     5 1
   42    44    17 1
   43    44    39 1
   44    45    10 1
   45    45    18 1
   46    45    40 1
   47    46    19 1
   48    46    41 1
   49    47    14 1
   50    47    16 1
   51    47    42 1
   52    48    38 1
   53    49    48 1
   54    50    49 1
   55    51    50 1
   56    52    51 1
   57    53    51 1
   58    54    53 1
   59    55    54 1
   60    56    55 1
   61    57    56 1
   62    58    56 1
   63    59    58 1
   64    60    59 1
   65    61    60 1
   66    62    61 1
   67    63    61 1
   68    64    27 1
   69    64    46 1
   70    65     5 1
   71    65    10 1
   72    65    64 1
   73    65    14 1
   74    66    23 1
   75    67    23 1
   76    68    23 1
   77    69    22 1
   78    70    22 1
   79    71    22 1
   80    72    21 1
   81    73    21 1
   82    74    21 1
   83    75    20 1
   84    76    20 1
   85    77    20 1
   86    78    15 1
   87    79    15 1
   88    80    15 1
   89    81     8 1
   90    82     8 1
   91    83     8 1
   92    84     7 1
   93    85     7 1
   94    86     6 1
   95    87     6 1
   96    88     3 1
   97    89     3 1
   98    90     1 1
   99    91     1 1
  100    92    63 1
  101    93    63 1
  102    94    63 1
  103    95    62 1
  104    96    62 1
  105    97    62 1
  106    98    60 1
  107    99    60 1
  108   100    59 1
  109   101    59 1
  110   102    58 1
  111   103    58 1
  112   104    57 1
  113   105    57 1
  114   106    57 1
  115   107    55 1
  116   108    55 1
  117   109    54 1
  118   110    54 1
  119   111    53 1
  120   112    53 1
  121   113    19 1
  122   114    18 1
  123   115    17 1
  124   116     9 1
  125   117     2 1
  126   118    52 1
  127   119    52 1
  128   120    52 1
  129   121    51 1
  130   122    50 1
  131   123    50 1
  132   124    49 1
  133   125    49 1
  134   126    48 1
  135   127    48 1
  136   128    43 1
  137   129    43 1
  138   130    43 1
  139   131    39 1
  140   132    32 1
  141   133    31 1
  142   134    61 1
  143   135    56 1
  144   136    24 1
  145   137    24 1
  146   139   138 1
  147   140   139 1
  148   141   140 1
  149   142   140 1
  150   143   142 1
  151   144   138 1
  152   144   143 1
  153   145   144 1
  154   146   145 1
  155   147   146 1
  156   148   147 1
  157   149   148 1
  158   150   149 1
  159   151   150 1
  160   152   151 1
  161   153   152 1
  162   154   138 1
  163   155   138 1
  164   156   143 1
  165   157   147 1
  166   158   151 1
  167   160   159 1
  168   161   160 1
  169   162   161 1
  170   163   161 1
  171   164   163 1
  172   165   159 1
  173   165   164 1
  174   166   165 1
  175   167   166 1
  176   168   167 1
  177   169   168 1
  178   170   169 1
  179   171   170 1
  180   172   171 1
  181   173   172 1
  182   174   153 1
  183   174   173 1
  184   175   159 1
  185   176   159 1
  186   177   164 1
  187   178   168 1
  188   179   172 1
  189   180   179 1
  190   181   179 1
  191   182   179 1
  192   183   178 1
  193   184   178 1
  194   185   178 1
  195   186   177 1
  196   187   177 1
  197   188   177 1
  198   189   176 1
  199   190   176 1
  200   191   176 1
  201   192   175 1
  202   193   175 1
  203   194   175 1
  204   195   160 1
  205   196   160 1
  206   197   158 1
  207   198   158 1
  208   199   158 1
  209   200   157 1
  210   201   157 1
  211   202   157 1
  212   203   156 1
  213   204   156 1
  214   205   156 1
  215   206   155 1
  216   207   155 1
  217   208   155 1
  218   209   154 1
  219   210   154 1
  220   211   154 1
  221   212   141 1
  222   213   146 1
  223   214   145 1
  224   215   142 1
  225   216   142 1
  226   217   174 1
  227   218   173 1
  228   219   171 1
  229   220   170 1
  230   221   169 1
  231   222   140 1
  232   223   167 1
  233   224   166 1
  234   225   165 1
  235   226   163 1
  236   227   161 1
  237   228   139 1
  238   229   139 1
  239   230   153 1
  240   231   152 1
  241   232   150 1
  242   233   149 1
  243   234   148 1
  244   235   162 1
  245   65    153 1
  246   65    174 1
@<TRIPOS>SUBSTRUCTURE
      1 CLA               1 ****               0 ****  **** 
      2 LUT             138 ****               0 ****  **** 
