@<TRIPOS>MOLECULE
Cpptraj generated mol2 file.
  235   246     2     0     0
SMALL
USER_CHARGES


@<TRIPOS>ATOM
      1 CAA        79.2382   57.8416   34.7649 a2         1 CLA     -0.055900
      2 CAB        80.0121   61.9527   43.6284 c8         1 CLA     -0.148500
      3 CAC        72.9074   57.7669   43.9654 a2         1 CLA     -0.012600
      4 CAD        75.0372   55.3073   36.4624 ck         1 CLA      0.398800
      5 NA         78.4334   58.1001   38.4068 ns         1 CLA     -0.225500
      6 CBA        80.4356   57.6783   33.8444 a2         1 CLA     -0.135000
      7 CBB        81.2601   62.3888   44.0921 c0         1 CLA     -0.395200
      8 CBC        72.9111   56.2476   43.8998 a3         1 CLA     -0.037700
      9 CBD        76.5080   55.8389   35.9577 a1         1 CLA     -0.053900
     10 NB         78.6080   59.6923   40.9925 nm         1 CLA     -0.295700
     11 OBD        74.2869   54.5357   35.8147 o2         1 CLA     -0.494600
     12 CGA        80.7871   56.2080   33.6536 c4         1 CLA      0.827000
     13 CGD        77.4673   54.7304   35.7029 c4         1 CLA      0.655300
     14 ND         75.6977   57.4312   39.2374 nm         1 CLA     -0.291600
     15 CED        78.3742   52.6252   36.5023 a3         1 CLA      0.005400
     16 CHA        76.9976   56.7558   37.1547 cs         1 CLA     -0.123800
     17 CHB        80.3606   59.3849   39.3040 aa         1 CLA     -0.291900
     18 CHC        77.3599   60.1852   43.0510 aa         1 CLA     -0.090400
     19 CHD        73.8967   57.4872   40.9980 aa         1 CLA     -0.052000
     20 CMA        81.7265   57.1156   37.4618 a3         1 CLA     -0.230700
     21 CMB        81.9634   61.2311   40.9226 a3         1 CLA     -0.180800
     22 CMC        75.0054   60.0087   45.2335 a3         1 CLA     -0.134000
     23 CMD        72.3710   55.6583   38.7203 a3         1 CLA     -0.141100
     24 C1         82.0989   54.3209   34.3206 a2         1 CLA      0.023000
     25 C1A        78.1819   57.4048   37.2426 ac         1 CLA     -0.015100
     26 C1B        79.8420   59.8971   40.5283 cr         1 CLA      0.054700
     27 C1C        76.1765   59.4549   42.9462 cn         1 CLA     -0.005600
     28 C1D        74.3887   57.1337   39.6884 ap         1 CLA     -0.047300
     29 O1A        80.4670   55.5213   32.7159 o2         1 CLA     -0.610800
     30 O1D        78.0071   54.5659   34.6409 o2         1 CLA     -0.558200
     31 C2         82.8950   53.8100   35.5262 c8         1 CLA     -0.325100
     32 C2A        79.4207   57.3124   36.2095 a1         1 CLA      0.098600
     33 C2B        80.5516   60.8434   41.3512 cb         1 CLA      0.088500
     34 C2C        75.0045   59.4023   43.8581 cb         1 CLA      0.053700
     35 C2D        73.8184   56.2600   38.7171 cb         1 CLA      0.058900
     36 O2A        81.4471   55.5989   34.6690 o1         1 CLA     -0.437200
     37 O2D        77.4958   53.8194   36.7180 o1         1 CLA     -0.357600
     38 C3         84.1391   53.3661   35.5278 c5         1 CLA      0.031200
     39 C3A        80.4750   58.0285   37.1044 a1         1 CLA      0.166800
     40 C3B        79.7178   61.1210   42.4870 cb         1 CLA      0.035000
     41 C3C        74.1149   58.4088   43.3156 cb         1 CLA     -0.089900
     42 C3D        74.7948   56.0249   37.6570 cb         1 CLA     -0.035900
     43 C4         84.4827   51.9219   35.3608 a3         1 CLA     -0.053300
     44 C4A        79.6765   58.5214   38.3389 ac         1 CLA      0.001800
     45 C4B        78.4669   60.3621   42.2500 cn         1 CLA     -0.020900
     46 C4C        74.5842   58.1262   41.9768 cr         1 CLA     -0.044400
     47 C4D        75.9537   56.7445   38.0973 c6         1 CLA     -0.046000
     48 C5         85.3156   54.2687   35.8891 a2         1 CLA     -0.070400
     49 C6         85.4706   54.4491   37.3244 a2         1 CLA      0.043900
     50 C7         86.6947   55.2461   37.8456 a2         1 CLA     -0.150000
     51 C8         86.7688   55.6721   39.3004 a1         1 CLA      0.064200
     52 C9         85.7169   56.8003   39.5978 a3         1 CLA     -0.259300
     53 C10        88.1984   56.1414   39.6390 a2         1 CLA     -0.071900
     54 C11        88.5722   56.5867   41.0708 a2         1 CLA      0.014500
     55 C12        87.9517   55.5058   42.1053 a2         1 CLA     -0.112100
     56 C13        88.5170   55.7241   43.4963 a1         1 CLA      0.089200
     57 C14        88.3220   54.4340   44.3021 a3         1 CLA     -0.239100
     58 C15        87.9758   56.9874   44.1427 a2         1 CLA     -0.102200
     59 C16        86.3915   57.1452   44.2641 a2         1 CLA      0.023900
     60 C17        86.1355   58.4733   45.0733 a2         1 CLA     -0.105700
     61 C18        84.6256   58.9927   44.9822 a1         1 CLA      0.206800
     62 C19        83.9948   59.7575   46.1513 a3         1 CLA     -0.280100
     63 C20        84.2461   59.6985   43.6151 a3         1 CLA     -0.280100
     64 NC         75.8739   58.5943   41.8403 nx         1 CLA     -0.309200
     65 MG         77.1313   58.5250   40.0358 mg         1 CLA      0.895000
     66 HMD3       72.2931   54.7223   38.0843 dc         1 CLA      0.064300
     67 HMD2       72.1707   55.3524   39.7192 dc         1 CLA      0.064300
     68 HMD1       71.6482   56.4183   38.4222 dc         1 CLA      0.064300
     69 HMC3       75.8934   59.8213   45.8609 dc         1 CLA      0.052100
     70 HMC2       74.7899   61.0680   45.1309 dc         1 CLA      0.052100
     71 HMC1       74.1227   59.6821   45.7603 dc         1 CLA      0.052100
     72 HMB3       82.2344   62.1277   41.5339 dc         1 CLA      0.063600
     73 HMB2       82.6826   60.4574   41.1691 dc         1 CLA      0.063600
     74 HMB1       81.9637   61.5479   39.9082 dc         1 CLA      0.063600
     75 HMA3       82.1640   57.7736   38.2635 dc         1 CLA      0.058300
     76 HMA2       81.4566   56.1201   37.9377 dc         1 CLA      0.058300
     77 HMA1       82.2885   56.9664   36.5647 dc         1 CLA      0.058300
     78 HED3       77.8885   51.9279   35.7979 dc         1 CLA      0.079300
     79 HED2       79.3370   52.8603   36.1225 dc         1 CLA      0.079300
     80 HED1       78.4609   52.1961   37.4970 dc         1 CLA      0.079300
     81 HBC3       72.9841   55.9908   42.8540 dc         1 CLA      0.016300
     82 HBC2       73.7313   55.7842   44.3888 dc         1 CLA      0.016300
     83 HBC1       72.0443   55.7674   44.4333 dc         1 CLA      0.016300
     84 HBB2       81.3723   62.9856   45.0578 da         1 CLA      0.183000
     85 HBB1       82.1979   62.0108   43.6824 da         1 CLA      0.183000
     86 HBA2       80.2713   58.2029   32.8772 dc         1 CLA      0.029400
     87 HBA1       81.2690   58.1653   34.2851 dc         1 CLA      0.029400
     88 HAC2       72.8822   57.9872   45.0311 dc         1 CLA      0.029300
     89 HAC1       72.0234   58.1716   43.5903 dc         1 CLA      0.029300
     90 HAA2       78.4185   57.3662   34.3563 dc         1 CLA      0.028700
     91 HAA1       79.0440   58.8536   34.9764 dc         1 CLA      0.028700
     92 H203       84.7445   60.6048   43.6153 dc         1 CLA      0.065600
     93 H202       84.4357   59.0396   42.7342 dc         1 CLA      0.065600
     94 H201       83.1668   59.9153   43.4376 dc         1 CLA      0.065600
     95 H193       84.4497   60.6844   46.3193 dc         1 CLA      0.065600
     96 H192       82.9437   59.9728   45.8975 dc         1 CLA      0.065600
     97 H191       84.0516   59.0294   46.9327 dc         1 CLA      0.065600
     98 H172       86.2131   58.3528   46.1472 dc         1 CLA      0.027600
     99 H171       86.8074   59.2519   44.6921 dc         1 CLA      0.027600
    100 H162       85.8995   57.1847   43.3331 dc         1 CLA      0.002900
    101 H161       85.9767   56.2625   44.8279 dc         1 CLA      0.002900
    102 H152       88.5806   57.0021   45.0890 dc         1 CLA      0.029100
    103 H151       88.3785   57.7991   43.5786 dc         1 CLA      0.029100
    104 H143       87.3171   54.1006   44.5004 dc         1 CLA      0.063600
    105 H142       88.8256   53.6137   43.9406 dc         1 CLA      0.063600
    106 H141       88.7612   54.6684   45.2884 dc         1 CLA      0.063600
    107 H122       86.8720   55.5601   42.1822 dc         1 CLA      0.032500
    108 H121       88.1653   54.4586   41.7931 dc         1 CLA      0.032500
    109 H112       89.6275   56.6672   41.2638 dc         1 CLA      0.006600
    110 H111       88.1347   57.5230   41.2933 dc         1 CLA      0.006600
    111 H102       88.9444   55.3578   39.3896 dc         1 CLA      0.024100
    112 H101       88.4422   57.0706   39.1531 dc         1 CLA      0.024100
    113 HHD        72.8608   57.2932   41.2579 da         1 CLA      0.174300
    114 HHC        77.2963   60.7066   43.9931 da         1 CLA      0.136800
    115 HHB        81.3962   59.6136   39.0523 da         1 CLA      0.138300
    116 HBD        76.3861   56.4664   35.0693 dc         1 CLA      0.107700
    117 HAB        79.1515   62.3026   44.1764 da         1 CLA      0.155200
    118 H93        85.7791   57.6607   38.9339 dc         1 CLA      0.069500
    119 H92        84.7444   56.3271   39.3956 dc         1 CLA      0.069500
    120 H91        85.7317   57.0985   40.5895 dc         1 CLA      0.069500
    121 H8         86.7081   54.7209   39.8437 dc         1 CLA      0.029300
    122 H72        87.5544   54.5424   37.6465 dc         1 CLA      0.044400
    123 H71        86.8194   56.0250   37.0937 dc         1 CLA      0.044400
    124 H62        84.5849   54.9747   37.6611 dc         1 CLA      0.015600
    125 H61        85.4669   53.4568   37.8350 dc         1 CLA      0.015600
    126 H52        86.2472   53.8498   35.4511 dc         1 CLA      0.033200
    127 H51        85.1750   55.2066   35.3901 dc         1 CLA      0.033200
    128 H43        85.1218   51.6273   36.2130 dc         1 CLA      0.037000
    129 H42        83.6585   51.3074   35.4045 dc         1 CLA      0.037000
    130 H41        85.0849   51.7586   34.4548 dc         1 CLA      0.037000
    131 H3A        80.8773   58.8071   36.4979 dc         1 CLA      0.041100
    132 H2A        79.6362   56.2704   36.2167 dc         1 CLA      0.083100
    133 H2         82.4316   53.8943   36.5448 da         1 CLA      0.180900
    134 H18        84.1055   58.0462   44.9931 dc         1 CLA     -0.003900
    135 H13        89.6074   55.8046   43.4089 dc         1 CLA      0.019700
    136 H12        81.3379   53.6419   34.0243 dc         1 CLA      0.120400
    137 H11        82.7791   54.4548   33.5017 dc         1 CLA      0.120400
    138 C1         69.4451   61.6588   50.6381 Z1         2 LUT      0.509236
    139 C2         67.9949   61.4912   51.1892 Z2         2 LUT     -0.434695
    140 C3         67.2222   62.7909   51.5185 Z3         2 LUT      0.437453
    141 O3         67.4266   63.1970   52.8972 S1         2 LUT     -0.547129
    142 C4         67.6205   63.9791   50.6040 Z4         2 LUT     -0.468603
    143 C5         68.5008   63.6366   49.3768 Z5         2 LUT      0.279246
    144 C6         69.3686   62.6034   49.3798 Z6         2 LUT     -0.305473
    145 C7         69.8247   62.0013   48.0729 Z7         2 LUT      0.069402
    146 C8         70.8484   62.4410   47.2789 Z8         2 LUT     -0.191631
    147 C9         71.2251   61.9412   45.9266 Z9         2 LUT      0.196698
    148 C10        72.1501   62.6656   45.2819 Y1         2 LUT     -0.208611
    149 C11        72.8373   62.5531   43.9911 Y2         2 LUT      0.030784
    150 C12        74.0056   63.1928   43.7263 Y3         2 LUT     -0.220316
    151 C13        74.8800   63.0908   42.6672 Y4         2 LUT      0.215937
    152 C14        76.0963   63.7895   42.7517 Y5         2 LUT     -0.185793
    153 C15        77.2159   63.8861   41.7570 Y6         2 LUT     -0.057835
    154 C16        70.0495   60.3005   50.1929 Y7         2 LUT     -0.405615
    155 C17        70.2529   62.2977   51.7539 Y7         2 LUT     -0.405615
    156 C18        68.0374   64.3046   48.0958 Y9         2 LUT     -0.369639
    157 C19        70.4627   60.8212   45.3953 W1         2 LUT     -0.333362
    158 C20        74.5463   62.0839   41.5778 W2         2 LUT     -0.323439
    159 C21        88.8367   64.3573   35.6235 Z1         2 LUT      0.406104
    160 C22        89.3836   63.6838   34.2819 Z2         2 LUT     -0.404965
    161 C23        89.2376   64.5429   33.0345 Z3         2 LUT      0.391255
    162 O23        89.6906   63.8042   31.9321 S1         2 LUT     -0.528210
    163 C24        87.9641   65.3945   33.0185 W6         2 LUT     -0.258361
    164 C25        87.0763   65.5517   34.0280 Z5         2 LUT      0.133546
    165 C26        87.3334   64.8270   35.4276 W8         2 LUT     -0.147008
    166 C27        86.5537   65.5538   36.5627 Z7         2 LUT      0.023843
    167 C28        85.2083   65.3466   36.7876 Z8         2 LUT     -0.216987
    168 C29        84.5312   65.9353   37.9181 Z9         2 LUT      0.206524
    169 C30        83.5288   65.2435   38.3773 Y1         2 LUT     -0.215556
    170 C31        82.8198   65.4125   39.6589 Y2         2 LUT      0.025142
    171 C32        81.6609   64.7522   39.8945 Y3         2 LUT     -0.212209
    172 C33        80.8073   64.8881   41.0427 Y4         2 LUT      0.240937
    173 C34        79.5291   64.3876   41.0644 Y5         2 LUT     -0.218862
    174 C35        78.4710   64.3298   42.0308 Y6         2 LUT     -0.023547
    175 C36        89.8261   65.4672   36.1394 Y7         2 LUT     -0.393485
    176 C37        88.7746   63.4144   36.7621 Y7         2 LUT     -0.393485
    177 C38        85.7604   66.3164   33.8038 Y9         2 LUT     -0.387526
    178 C39        85.2109   67.0642   38.5862 W1         2 LUT     -0.322618
    179 C40        81.0858   66.0014   42.0360 W2         2 LUT     -0.358472
    180 H403       81.9365   65.6760   42.6007 R7         2 LUT      0.097720
    181 H402       81.4808   66.9404   41.6446 R7         2 LUT      0.097720
    182 H401       80.2802   66.2234   42.7207 R7         2 LUT      0.097720
    183 H393       85.9970   66.7126   39.2727 R4         2 LUT      0.082505
    184 H392       85.5645   67.7858   37.8535 R4         2 LUT      0.082505
    185 H391       84.5453   67.6173   39.2488 R4         2 LUT      0.082505
    186 H383       84.7810   65.7419   33.8458 R1         2 LUT      0.104030
    187 H382       85.7641   67.0672   34.6194 R1         2 LUT      0.104030
    188 H381       85.7732   67.0263   32.9831 R1         2 LUT      0.104030
    189 H373       89.7449   62.9739   37.0594 T4         2 LUT      0.089537
    190 H372       88.3636   63.9323   37.6882 T4         2 LUT      0.089537
    191 H371       88.1167   62.5544   36.4619 T4         2 LUT      0.089537
    192 H363       89.9248   66.3172   35.3917 T4         2 LUT      0.089537
    193 H362       89.4720   65.8649   37.1220 T4         2 LUT      0.089537
    194 H361       90.7947   65.0553   36.4270 T4         2 LUT      0.089537
    195 H222       90.4318   63.4395   34.4089 U2         2 LUT      0.127376
    196 H221       88.8075   62.7586   34.1125 U2         2 LUT      0.127376
    197 H203       73.6037   62.2240   41.0600 R7         2 LUT      0.087068
    198 H202       75.3497   62.0958   40.8973 R7         2 LUT      0.087068
    199 H201       74.3878   61.1265   41.9678 R7         2 LUT      0.087068
    200 H193       70.5443   60.6564   44.3087 R4         2 LUT      0.089716
    201 H192       70.6053   59.9532   46.0004 R4         2 LUT      0.089716
    202 H191       69.3799   61.0412   45.4984 R4         2 LUT      0.089716
    203 H183       67.0762   64.8803   48.2207 R1         2 LUT      0.094572
    204 H182       68.8539   65.0256   47.8726 R1         2 LUT      0.094572
    205 H181       67.9904   63.6370   47.2860 R1         2 LUT      0.094572
    206 H173       70.4438   61.7212   52.6112 T4         2 LUT      0.093752
    207 H172       71.1974   62.6794   51.4111 T4         2 LUT      0.093752
    208 H171       69.8857   63.2138   52.1477 T4         2 LUT      0.093752
    209 H163       71.0022   60.4736   49.6657 T4         2 LUT      0.093752
    210 H162       70.3259   59.6577   50.9412 T4         2 LUT      0.093752
    211 H161       69.4282   59.7102   49.5205 T4         2 LUT      0.093752
    212 HO3        66.7914   62.6953   53.4548 Q1         2 LUT      0.300121
    213 H8         71.4225   63.2031   47.7784 U7         2 LUT      0.080784
    214 H7         69.2168   61.2885   47.5621 U6         2 LUT      0.042190
    215 H42        66.6077   64.3784   50.2437 U5         2 LUT      0.145166
    216 H41        68.1444   64.7890   51.0732 U5         2 LUT      0.145166
    217 H35        78.6744   64.6703   43.0513 T3         2 LUT      0.077919
    218 H34        79.2441   63.9971   40.0704 T2         2 LUT      0.073626
    219 H32        81.2464   64.1098   39.0970 T1         2 LUT      0.092510
    220 H31        83.2867   66.0141   40.4715 U9         2 LUT      0.070048
    221 H30        83.1889   64.4191   37.7366 U8         2 LUT      0.085442
    222 H3         66.2308   62.4591   51.2941 U3         2 LUT     -0.031596
    223 H28        84.6683   64.8467   36.0435 U7         2 LUT      0.084728
    224 H27        87.1486   66.0977   37.2536 U6         2 LUT      0.087291
    225 H26        86.6903   63.9476   35.2429 Q6         2 LUT      0.075325
    226 H24        87.7286   65.9478   32.1248 Q5         2 LUT      0.094482
    227 H23        90.0480   65.3211   33.2334 U3         2 LUT     -0.024869
    228 H22        67.3267   60.9250   50.4879 U2         2 LUT      0.127376
    229 H21        67.9663   60.9232   52.1954 U2         2 LUT      0.127376
    230 H15        77.1759   63.3721   40.8010 T3         2 LUT      0.093200
    231 H14        76.3303   64.3849   43.5765 T2         2 LUT      0.068865
    232 H12        74.3875   63.8113   44.4914 T1         2 LUT      0.095507
    233 H11        72.5035   61.7451   43.3167 U9         2 LUT      0.068930
    234 H10        72.6448   63.4883   45.8191 U8         2 LUT      0.083911
    235 H1         89.4169   64.2180   31.1214 Q1         2 LUT      0.297311
@<TRIPOS>BOND
    1     6     1 1
    2     7     2 1
    3     8     3 1
    4     9     4 1
    5    11     4 1
    6    12     6 1
    7    13     9 1
    8    16     9 1
    9    25     5 1
   10    25    16 1
   11    26    10 1
   12    26    17 1
   13    27    18 1
   14    28    14 1
   15    28    19 1
   16    29    12 1
   17    30    13 1
   18    31    24 1
   19    32     1 1
   20    32    25 1
   21    33    21 1
   22    33    26 1
   23    34    22 1
   24    34    27 1
   25    35    23 1
   26    35    28 1
   27    36    12 1
   28    36    24 1
   29    37    13 1
   30    37    15 1
   31    38    31 1
   32    39    20 1
   33    39    32 1
   34    40     2 1
   35    40    33 1
   36    41     3 1
   37    41    34 1
   38    42     4 1
   39    42    35 1
   40    43    38 1
   41    44     5 1
   42    44    17 1
   43    44    39 1
   44    45    10 1
   45    45    18 1
   46    45    40 1
   47    46    19 1
   48    46    41 1
   49    47    14 1
   50    47    16 1
   51    47    42 1
   52    48    38 1
   53    49    48 1
   54    50    49 1
   55    51    50 1
   56    52    51 1
   57    53    51 1
   58    54    53 1
   59    55    54 1
   60    56    55 1
   61    57    56 1
   62    58    56 1
   63    59    58 1
   64    60    59 1
   65    61    60 1
   66    62    61 1
   67    63    61 1
   68    64    27 1
   69    64    46 1
   70    65     5 1
   71    65    10 1
   72    65    64 1
   73    65    14 1
   74    66    23 1
   75    67    23 1
   76    68    23 1
   77    69    22 1
   78    70    22 1
   79    71    22 1
   80    72    21 1
   81    73    21 1
   82    74    21 1
   83    75    20 1
   84    76    20 1
   85    77    20 1
   86    78    15 1
   87    79    15 1
   88    80    15 1
   89    81     8 1
   90    82     8 1
   91    83     8 1
   92    84     7 1
   93    85     7 1
   94    86     6 1
   95    87     6 1
   96    88     3 1
   97    89     3 1
   98    90     1 1
   99    91     1 1
  100    92    63 1
  101    93    63 1
  102    94    63 1
  103    95    62 1
  104    96    62 1
  105    97    62 1
  106    98    60 1
  107    99    60 1
  108   100    59 1
  109   101    59 1
  110   102    58 1
  111   103    58 1
  112   104    57 1
  113   105    57 1
  114   106    57 1
  115   107    55 1
  116   108    55 1
  117   109    54 1
  118   110    54 1
  119   111    53 1
  120   112    53 1
  121   113    19 1
  122   114    18 1
  123   115    17 1
  124   116     9 1
  125   117     2 1
  126   118    52 1
  127   119    52 1
  128   120    52 1
  129   121    51 1
  130   122    50 1
  131   123    50 1
  132   124    49 1
  133   125    49 1
  134   126    48 1
  135   127    48 1
  136   128    43 1
  137   129    43 1
  138   130    43 1
  139   131    39 1
  140   132    32 1
  141   133    31 1
  142   134    61 1
  143   135    56 1
  144   136    24 1
  145   137    24 1
  146   139   138 1
  147   140   139 1
  148   141   140 1
  149   142   140 1
  150   143   142 1
  151   144   138 1
  152   144   143 1
  153   145   144 1
  154   146   145 1
  155   147   146 1
  156   148   147 1
  157   149   148 1
  158   150   149 1
  159   151   150 1
  160   152   151 1
  161   153   152 1
  162   154   138 1
  163   155   138 1
  164   156   143 1
  165   157   147 1
  166   158   151 1
  167   160   159 1
  168   161   160 1
  169   162   161 1
  170   163   161 1
  171   164   163 1
  172   165   159 1
  173   165   164 1
  174   166   165 1
  175   167   166 1
  176   168   167 1
  177   169   168 1
  178   170   169 1
  179   171   170 1
  180   172   171 1
  181   173   172 1
  182   174   153 1
  183   174   173 1
  184   175   159 1
  185   176   159 1
  186   177   164 1
  187   178   168 1
  188   179   172 1
  189   180   179 1
  190   181   179 1
  191   182   179 1
  192   183   178 1
  193   184   178 1
  194   185   178 1
  195   186   177 1
  196   187   177 1
  197   188   177 1
  198   189   176 1
  199   190   176 1
  200   191   176 1
  201   192   175 1
  202   193   175 1
  203   194   175 1
  204   195   160 1
  205   196   160 1
  206   197   158 1
  207   198   158 1
  208   199   158 1
  209   200   157 1
  210   201   157 1
  211   202   157 1
  212   203   156 1
  213   204   156 1
  214   205   156 1
  215   206   155 1
  216   207   155 1
  217   208   155 1
  218   209   154 1
  219   210   154 1
  220   211   154 1
  221   212   141 1
  222   213   146 1
  223   214   145 1
  224   215   142 1
  225   216   142 1
  226   217   174 1
  227   218   173 1
  228   219   171 1
  229   220   170 1
  230   221   169 1
  231   222   140 1
  232   223   167 1
  233   224   166 1
  234   225   165 1
  235   226   163 1
  236   227   161 1
  237   228   139 1
  238   229   139 1
  239   230   153 1
  240   231   152 1
  241   232   150 1
  242   233   149 1
  243   234   148 1
  244   235   162 1
  245   65    153 1
  246   65    174 1
@<TRIPOS>SUBSTRUCTURE
      1 CLA               1 ****               0 ****  **** 
      2 LUT             138 ****               0 ****  **** 
