@<TRIPOS>MOLECULE
Cpptraj generated mol2 file.
  235   246     2     0     0
SMALL
USER_CHARGES


@<TRIPOS>ATOM
      1 CAA        79.4634   58.3057   34.7155 a2         1 CLA     -0.055900
      2 CAB        79.2621   61.9572   43.8609 c8         1 CLA     -0.148500
      3 CAC        72.3420   58.0425   43.2391 a2         1 CLA     -0.012600
      4 CAD        75.0340   55.7915   35.9525 ck         1 CLA      0.398800
      5 NA         78.4163   58.6334   38.0631 ns         1 CLA     -0.225500
      6 CBA        80.6474   58.0171   33.6915 a2         1 CLA     -0.135000
      7 CBB        80.4290   62.1478   44.5246 c0         1 CLA     -0.395200
      8 CBC        72.4448   56.5659   43.5418 a3         1 CLA     -0.037700
      9 CBD        76.5644   56.3687   35.5345 a1         1 CLA     -0.053900
     10 NB         78.2234   60.1317   40.7270 nm         1 CLA     -0.295700
     11 OBD        74.3492   55.0429   35.2979 o2         1 CLA     -0.494600
     12 CGA        81.0394   56.5836   33.2626 c4         1 CLA      0.827000
     13 CGD        77.4183   55.2591   35.0646 c4         1 CLA      0.655300
     14 ND         75.5428   57.7962   38.7687 nm         1 CLA     -0.291600
     15 CED        78.2203   53.2313   35.8241 a3         1 CLA      0.005400
     16 CHA        77.0453   57.3079   36.6836 cs         1 CLA     -0.123800
     17 CHB        80.2167   59.7650   39.3381 aa         1 CLA     -0.291900
     18 CHC        76.9021   60.2906   42.8460 aa         1 CLA     -0.090400
     19 CHD        73.7357   57.6353   40.3479 aa         1 CLA     -0.052000
     20 CMA        81.7742   57.5688   37.4535 a3         1 CLA     -0.230700
     21 CMB        81.6313   61.5311   41.5269 a3         1 CLA     -0.180800
     22 CMC        74.4423   59.9126   44.8595 a3         1 CLA     -0.134000
     23 CMD        72.5091   55.8458   38.1119 a3         1 CLA     -0.141100
     24 C1         81.8333   54.5609   34.3857 a2         1 CLA      0.023000
     25 C1A        78.2929   57.9195   36.9285 ac         1 CLA     -0.015100
     26 C1B        79.5373   60.3227   40.4384 cr         1 CLA      0.054700
     27 C1C        75.7121   59.6156   42.5699 cn         1 CLA     -0.005600
     28 C1D        74.2880   57.3098   39.1193 ap         1 CLA     -0.047300
     29 O1A        80.8824   56.0411   32.2096 o2         1 CLA     -0.610800
     30 O1D        78.1913   55.1872   34.1600 o2         1 CLA     -0.558200
     31 C2         82.4818   54.2478   35.6566 c8         1 CLA     -0.325100
     32 C2A        79.5898   57.7332   36.1370 a1         1 CLA      0.098600
     33 C2B        80.1589   61.0421   41.5448 cb         1 CLA      0.088500
     34 C2C        74.4960   59.4367   43.3849 cb         1 CLA      0.053700
     35 C2D        73.7145   56.5562   38.0511 cb         1 CLA      0.058900
     36 O2A        81.4791   55.9580   34.3846 o1         1 CLA     -0.437200
     37 O2D        77.1840   54.1924   35.9475 o1         1 CLA     -0.357600
     38 C3         83.5556   53.4709   35.8078 c5         1 CLA      0.031200
     39 C3A        80.6057   58.4601   37.0342 a1         1 CLA      0.166800
     40 C3B        79.1546   61.2656   42.5170 cb         1 CLA      0.035000
     41 C3C        73.6045   58.6129   42.6783 cb         1 CLA     -0.089900
     42 C3D        74.7713   56.5119   37.1762 cb         1 CLA     -0.035900
     43 C4         83.4064   52.0035   35.6795 a3         1 CLA     -0.053300
     44 C4A        79.7201   58.9601   38.2553 ac         1 CLA      0.001800
     45 C4B        77.9819   60.5823   42.0388 cn         1 CLA     -0.020900
     46 C4C        74.2273   58.4552   41.3736 cr         1 CLA     -0.044400
     47 C4D        75.9066   57.2712   37.5656 c6         1 CLA     -0.046000
     48 C5         84.9296   54.0253   35.4326 a2         1 CLA     -0.070400
     49 C6         85.2583   55.3303   36.1382 a2         1 CLA      0.043900
     50 C7         85.7625   55.0934   37.5339 a2         1 CLA     -0.150000
     51 C8         85.9619   56.3887   38.4467 a1         1 CLA      0.064200
     52 C9         87.1776   57.1487   38.0781 a3         1 CLA     -0.259300
     53 C10        85.9845   56.0347   39.9762 a2         1 CLA     -0.071900
     54 C11        85.8913   57.1445   41.0800 a2         1 CLA      0.014500
     55 C12        85.8683   56.7576   42.5250 a2         1 CLA     -0.112100
     56 C13        85.9764   57.9443   43.5727 a1         1 CLA      0.089200
     57 C14        87.2039   58.8148   43.4045 a3         1 CLA     -0.239100
     58 C15        85.8416   57.3135   45.0086 a2         1 CLA     -0.102200
     59 C16        85.7426   58.3024   46.1778 a2         1 CLA      0.023900
     60 C17        85.2283   57.5171   47.4958 a2         1 CLA     -0.105700
     61 C18        85.4236   58.2804   48.8225 a1         1 CLA      0.206800
     62 C19        84.3784   59.4535   49.0289 a3         1 CLA     -0.280100
     63 C20        85.3954   57.3396   50.0226 a3         1 CLA     -0.280100
     64 NC         75.4687   59.0929   41.3187 nx         1 CLA     -0.309200
     65 MG         76.7989   59.0505   39.6497 mg         1 CLA      0.895000
     66 HMD3       71.7716   56.5846   37.9785 dc         1 CLA      0.064300
     67 HMD2       72.4427   55.1907   37.3043 dc         1 CLA      0.064300
     68 HMD1       72.3116   55.2917   38.9884 dc         1 CLA      0.064300
     69 HMC3       73.4828   60.0687   45.1741 dc         1 CLA      0.052100
     70 HMC2       74.7751   59.1044   45.4226 dc         1 CLA      0.052100
     71 HMC1       75.1195   60.7249   45.1603 dc         1 CLA      0.052100
     72 HMB3       81.8562   62.3987   42.1535 dc         1 CLA      0.063600
     73 HMB2       82.3241   60.6787   41.7453 dc         1 CLA      0.063600
     74 HMB1       81.7942   61.8821   40.4796 dc         1 CLA      0.063600
     75 HMA3       82.6261   57.4544   36.7122 dc         1 CLA      0.058300
     76 HMA2       82.3206   57.9747   38.3344 dc         1 CLA      0.058300
     77 HMA1       81.4357   56.5576   37.6408 dc         1 CLA      0.058300
     78 HED3       77.6898   52.2950   36.2030 dc         1 CLA      0.079300
     79 HED2       78.5384   52.9848   34.8178 dc         1 CLA      0.079300
     80 HED1       79.1154   53.4501   36.4118 dc         1 CLA      0.079300
     81 HBC3       72.7069   56.1233   42.6235 dc         1 CLA      0.016300
     82 HBC2       73.2403   56.3244   44.2778 dc         1 CLA      0.016300
     83 HBC1       71.5473   56.1295   43.8984 dc         1 CLA      0.016300
     84 HBB2       80.4377   62.7332   45.4876 da         1 CLA      0.183000
     85 HBB1       81.2955   61.7148   44.1253 da         1 CLA      0.183000
     86 HBA2       80.3799   58.5196   32.7397 dc         1 CLA      0.029400
     87 HBA1       81.5944   58.4677   34.0212 dc         1 CLA      0.029400
     88 HAC2       71.9740   58.6466   44.0711 dc         1 CLA      0.029300
     89 HAC1       71.6323   58.1543   42.4363 dc         1 CLA      0.029300
     90 HAA2       78.5237   57.9647   34.2917 dc         1 CLA      0.028700
     91 HAA1       79.3234   59.3793   34.9184 dc         1 CLA      0.028700
     92 H203       86.0601   56.5644   49.9255 dc         1 CLA      0.065600
     93 H202       85.5935   57.9089   50.9441 dc         1 CLA      0.065600
     94 H201       84.3756   56.9588   50.1602 dc         1 CLA      0.065600
     95 H193       84.7000   60.0439   49.8508 dc         1 CLA      0.065600
     96 H192       84.3922   60.0196   48.1261 dc         1 CLA      0.065600
     97 H191       83.3681   58.9917   49.1392 dc         1 CLA      0.065600
     98 H172       84.1922   57.1434   47.3895 dc         1 CLA      0.027600
     99 H171       85.7099   56.4809   47.5271 dc         1 CLA      0.027600
    100 H162       86.7480   58.7249   46.3982 dc         1 CLA      0.002900
    101 H161       85.1766   59.1681   45.9395 dc         1 CLA      0.002900
    102 H152       85.0009   56.7496   44.9090 dc         1 CLA      0.029100
    103 H151       86.6028   56.5855   45.2188 dc         1 CLA      0.029100
    104 H143       88.0856   58.2461   43.1669 dc         1 CLA      0.063600
    105 H142       87.0359   59.5276   42.6189 dc         1 CLA      0.063600
    106 H141       87.3398   59.4206   44.3186 dc         1 CLA      0.063600
    107 H122       84.8954   56.1903   42.7861 dc         1 CLA      0.032500
    108 H121       86.7272   56.1732   42.8421 dc         1 CLA      0.032500
    109 H112       86.6021   57.9074   40.8804 dc         1 CLA      0.006600
    110 H111       84.9605   57.6305   40.8942 dc         1 CLA      0.006600
    111 H102       85.2323   55.3204   40.1063 dc         1 CLA      0.024100
    112 H101       86.9428   55.5824   40.1246 dc         1 CLA      0.024100
    113 HHD        72.7499   57.1515   40.4812 da         1 CLA      0.174300
    114 HHC        76.9579   60.6809   43.8458 da         1 CLA      0.136800
    115 HHB        81.2456   60.0792   39.3145 da         1 CLA      0.138300
    116 HBD        76.3531   57.0284   34.6610 dc         1 CLA      0.107700
    117 HAB        78.3765   62.5197   44.2833 da         1 CLA      0.155200
    118 H93        86.9335   57.6665   37.1057 dc         1 CLA      0.069500
    119 H92        87.4792   57.8977   38.8277 dc         1 CLA      0.069500
    120 H91        88.0072   56.5698   37.7280 dc         1 CLA      0.069500
    121 H8         85.1284   57.0467   38.3261 dc         1 CLA      0.029300
    122 H72        85.0389   54.4395   38.0075 dc         1 CLA      0.044400
    123 H71        86.7122   54.5471   37.5678 dc         1 CLA      0.044400
    124 H62        86.0858   55.8739   35.6668 dc         1 CLA      0.015600
    125 H61        84.3760   55.8731   36.1396 dc         1 CLA      0.015600
    126 H52        85.6197   53.2144   35.5754 dc         1 CLA      0.033200
    127 H51        85.0894   54.1632   34.3066 dc         1 CLA      0.033200
    128 H43        84.0018   51.4223   36.3826 dc         1 CLA      0.037000
    129 H42        82.4257   51.6875   35.9002 dc         1 CLA      0.037000
    130 H41        83.7246   51.6730   34.7467 dc         1 CLA      0.037000
    131 H3A        81.0242   59.3540   36.5870 dc         1 CLA      0.041100
    132 H2A        79.8821   56.7431   36.0138 dc         1 CLA      0.083100
    133 H2         82.0617   54.8408   36.4871 da         1 CLA      0.180900
    134 H18        86.3899   58.8237   48.8579 dc         1 CLA     -0.003900
    135 H13        85.1581   58.6095   43.3342 dc         1 CLA      0.019700
    136 H12        81.0047   53.9717   34.0286 dc         1 CLA      0.120400
    137 H11        82.6978   54.2985   33.7163 dc         1 CLA      0.120400
    138 C1         69.1077   61.8456   50.6908 Z1         2 LUT      0.509236
    139 C2         68.4926   62.4638   51.8376 Z2         2 LUT     -0.434695
    140 C3         67.0977   62.9682   51.5998 Z3         2 LUT      0.437453
    141 O3         66.5597   63.5849   52.7302 S1         2 LUT     -0.547129
    142 C4         67.2220   64.0198   50.5085 Z4         2 LUT     -0.468603
    143 C5         67.9206   63.4052   49.2794 Z5         2 LUT      0.279246
    144 C6         68.7432   62.3688   49.3496 Z6         2 LUT     -0.305473
    145 C7         69.5415   62.0033   48.1853 Z7         2 LUT      0.069402
    146 C8         70.2420   62.6740   47.2544 Z8         2 LUT     -0.191631
    147 C9         70.8743   62.1430   45.9711 Z9         2 LUT      0.196698
    148 C10        71.7492   63.0372   45.3511 Y1         2 LUT     -0.208611
    149 C11        72.4582   62.7900   44.1258 Y2         2 LUT      0.030784
    150 C12        73.4374   63.6145   43.7191 Y3         2 LUT     -0.220316
    151 C13        74.2969   63.4117   42.6085 Y4         2 LUT      0.215937
    152 C14        75.5297   64.0320   42.6152 Y5         2 LUT     -0.185793
    153 C15        76.6495   63.9466   41.6470 Y6         2 LUT     -0.057835
    154 C16        68.6405   60.3871   50.7458 Y7         2 LUT     -0.405615
    155 C17        70.6258   61.7506   50.8894 Y7         2 LUT     -0.405615
    156 C18        67.7679   64.3708   48.1483 Y9         2 LUT     -0.369639
    157 C19        70.5174   60.7221   45.3351 W1         2 LUT     -0.333362
    158 C20        73.7137   62.6527   41.4148 W2         2 LUT     -0.323439
    159 C21        87.7050   65.1045   34.8000 Z1         2 LUT      0.406104
    160 C22        88.4081   64.6118   33.5040 Z2         2 LUT     -0.404965
    161 C23        88.4004   65.6697   32.4084 Z3         2 LUT      0.391255
    162 O23        88.6741   65.0575   31.1281 S1         2 LUT     -0.528210
    163 C24        87.0708   66.3530   32.3431 W6         2 LUT     -0.258361
    164 C25        86.0675   66.3654   33.2335 Z5         2 LUT      0.133546
    165 C26        86.2182   65.5232   34.5568 W8         2 LUT     -0.147008
    166 C27        85.5156   66.2346   35.7196 Z7         2 LUT      0.023843
    167 C28        84.3294   65.9433   36.2640 Z8         2 LUT     -0.216987
    168 C29        83.7543   66.4019   37.4932 Z9         2 LUT      0.206524
    169 C30        82.8423   65.5102   38.0636 Y1         2 LUT     -0.215556
    170 C31        82.1189   65.5828   39.3633 Y2         2 LUT      0.025142
    171 C32        80.9905   64.9538   39.7531 Y3         2 LUT     -0.212209
    172 C33        80.1501   65.0366   40.9323 Y4         2 LUT      0.240937
    173 C34        78.9624   64.3830   40.9212 Y5         2 LUT     -0.218862
    174 C35        77.8642   64.5575   41.8204 Y6         2 LUT     -0.023547
    175 C36        88.7579   66.1309   35.4038 Y7         2 LUT     -0.393485
    176 C37        87.7979   63.9133   35.7910 Y7         2 LUT     -0.393485
    177 C38        84.7684   67.1567   33.0352 Y9         2 LUT     -0.387526
    178 C39        84.3140   67.6957   38.1308 W1         2 LUT     -0.322618
    179 C40        80.5626   66.0219   42.0041 W2         2 LUT     -0.358472
    180 H403       80.6072   67.0175   41.7018 R7         2 LUT      0.097720
    181 H402       79.9591   66.0268   42.8834 R7         2 LUT      0.097720
    182 H401       81.5463   65.7648   42.4269 R7         2 LUT      0.097720
    183 H393       85.1915   67.6522   38.7732 R4         2 LUT      0.082505
    184 H392       84.5553   68.4380   37.3328 R4         2 LUT      0.082505
    185 H391       83.5406   68.2207   38.7212 R4         2 LUT      0.082505
    186 H383       83.9548   66.4470   33.0709 R1         2 LUT      0.104030
    187 H382       84.6186   67.8760   33.8580 R1         2 LUT      0.104030
    188 H381       84.8085   67.5670   32.0586 R1         2 LUT      0.104030
    189 H373       87.3462   62.9676   35.4721 T4         2 LUT      0.089537
    190 H372       88.8233   63.7890   36.0607 T4         2 LUT      0.089537
    191 H371       87.2345   64.1714   36.7254 T4         2 LUT      0.089537
    192 H363       89.7627   65.8257   35.2857 T4         2 LUT      0.089537
    193 H362       88.5035   67.1395   34.9365 T4         2 LUT      0.089537
    194 H361       88.6387   66.1293   36.4238 T4         2 LUT      0.089537
    195 H222       89.4192   64.3400   33.7107 U2         2 LUT      0.127376
    196 H221       87.9600   63.7164   33.1027 U2         2 LUT      0.127376
    197 H203       72.6592   62.8789   41.3801 R7         2 LUT      0.087068
    198 H202       74.0959   62.9767   40.4403 R7         2 LUT      0.087068
    199 H201       73.8202   61.6222   41.5065 R7         2 LUT      0.087068
    200 H193       71.2968   59.9452   45.5395 R4         2 LUT      0.089716
    201 H192       69.5723   60.3269   45.7518 R4         2 LUT      0.089716
    202 H191       70.4076   60.6231   44.2769 R4         2 LUT      0.089716
    203 H183       68.6349   65.0573   48.0712 R1         2 LUT      0.094572
    204 H182       67.6636   63.7940   47.1716 R1         2 LUT      0.094572
    205 H181       66.9129   64.9564   48.2210 R1         2 LUT      0.094572
    206 H173       71.1201   62.6730   50.5510 T4         2 LUT      0.093752
    207 H172       70.8822   61.4531   51.9104 T4         2 LUT      0.093752
    208 H171       71.0835   60.9510   50.2142 T4         2 LUT      0.093752
    209 H163       69.0537   59.8159   51.6313 T4         2 LUT      0.093752
    210 H162       67.5162   60.2287   50.6580 T4         2 LUT      0.093752
    211 H161       69.1478   59.8573   49.9337 T4         2 LUT      0.093752
    212 HO3        66.1591   62.9163   53.3504 Q1         2 LUT      0.300121
    213 H8         70.3547   63.7482   47.4000 U7         2 LUT      0.080784
    214 H7         69.5003   60.8710   48.0696 U6         2 LUT      0.042190
    215 H42        66.2450   64.3838   50.2129 U5         2 LUT      0.145166
    216 H41        67.6377   65.0036   50.7424 U5         2 LUT      0.145166
    217 H35        77.9380   65.1433   42.7647 T3         2 LUT      0.077919
    218 H34        78.8205   63.8799   39.9477 T2         2 LUT      0.073626
    219 H32        80.6261   64.2413   39.0363 T1         2 LUT      0.092510
    220 H31        82.4969   66.5105   39.8340 U9         2 LUT      0.070048
    221 H30        82.5293   64.6106   37.5487 U8         2 LUT      0.085442
    222 H3         66.4796   62.0972   51.2630 U3         2 LUT     -0.031596
    223 H28        83.8165   65.1172   35.7351 U7         2 LUT      0.084728
    224 H27        86.1552   66.9439   36.1664 U6         2 LUT      0.087291
    225 H26        85.6415   64.5958   34.6036 Q6         2 LUT      0.075325
    226 H24        86.8493   67.0749   31.4977 Q5         2 LUT      0.094482
    227 H23        89.1479   66.5447   32.6144 U3         2 LUT     -0.024869
    228 H22        68.5844   61.7270   52.6071 U2         2 LUT      0.127376
    229 H21        68.9219   63.4148   52.0613 U2         2 LUT      0.127376
    230 H15        76.5782   63.2819   40.8250 T3         2 LUT      0.093200
    231 H14        75.8012   64.6142   43.5148 T2         2 LUT      0.068865
    232 H12        73.8621   64.3853   44.3498 T1         2 LUT      0.095507
    233 H11        72.0672   61.9215   43.5628 U9         2 LUT      0.068930
    234 H10        72.0121   63.9190   45.8388 U8         2 LUT      0.083911
    235 H1         89.5694   64.9206   30.8476 Q1         2 LUT      0.297311
@<TRIPOS>BOND
    1     6     1 1
    2     7     2 1
    3     8     3 1
    4     9     4 1
    5    11     4 1
    6    12     6 1
    7    13     9 1
    8    16     9 1
    9    25     5 1
   10    25    16 1
   11    26    10 1
   12    26    17 1
   13    27    18 1
   14    28    14 1
   15    28    19 1
   16    29    12 1
   17    30    13 1
   18    31    24 1
   19    32     1 1
   20    32    25 1
   21    33    21 1
   22    33    26 1
   23    34    22 1
   24    34    27 1
   25    35    23 1
   26    35    28 1
   27    36    12 1
   28    36    24 1
   29    37    13 1
   30    37    15 1
   31    38    31 1
   32    39    20 1
   33    39    32 1
   34    40     2 1
   35    40    33 1
   36    41     3 1
   37    41    34 1
   38    42     4 1
   39    42    35 1
   40    43    38 1
   41    44     5 1
   42    44    17 1
   43    44    39 1
   44    45    10 1
   45    45    18 1
   46    45    40 1
   47    46    19 1
   48    46    41 1
   49    47    14 1
   50    47    16 1
   51    47    42 1
   52    48    38 1
   53    49    48 1
   54    50    49 1
   55    51    50 1
   56    52    51 1
   57    53    51 1
   58    54    53 1
   59    55    54 1
   60    56    55 1
   61    57    56 1
   62    58    56 1
   63    59    58 1
   64    60    59 1
   65    61    60 1
   66    62    61 1
   67    63    61 1
   68    64    27 1
   69    64    46 1
   70    65     5 1
   71    65    10 1
   72    65    64 1
   73    65    14 1
   74    66    23 1
   75    67    23 1
   76    68    23 1
   77    69    22 1
   78    70    22 1
   79    71    22 1
   80    72    21 1
   81    73    21 1
   82    74    21 1
   83    75    20 1
   84    76    20 1
   85    77    20 1
   86    78    15 1
   87    79    15 1
   88    80    15 1
   89    81     8 1
   90    82     8 1
   91    83     8 1
   92    84     7 1
   93    85     7 1
   94    86     6 1
   95    87     6 1
   96    88     3 1
   97    89     3 1
   98    90     1 1
   99    91     1 1
  100    92    63 1
  101    93    63 1
  102    94    63 1
  103    95    62 1
  104    96    62 1
  105    97    62 1
  106    98    60 1
  107    99    60 1
  108   100    59 1
  109   101    59 1
  110   102    58 1
  111   103    58 1
  112   104    57 1
  113   105    57 1
  114   106    57 1
  115   107    55 1
  116   108    55 1
  117   109    54 1
  118   110    54 1
  119   111    53 1
  120   112    53 1
  121   113    19 1
  122   114    18 1
  123   115    17 1
  124   116     9 1
  125   117     2 1
  126   118    52 1
  127   119    52 1
  128   120    52 1
  129   121    51 1
  130   122    50 1
  131   123    50 1
  132   124    49 1
  133   125    49 1
  134   126    48 1
  135   127    48 1
  136   128    43 1
  137   129    43 1
  138   130    43 1
  139   131    39 1
  140   132    32 1
  141   133    31 1
  142   134    61 1
  143   135    56 1
  144   136    24 1
  145   137    24 1
  146   139   138 1
  147   140   139 1
  148   141   140 1
  149   142   140 1
  150   143   142 1
  151   144   138 1
  152   144   143 1
  153   145   144 1
  154   146   145 1
  155   147   146 1
  156   148   147 1
  157   149   148 1
  158   150   149 1
  159   151   150 1
  160   152   151 1
  161   153   152 1
  162   154   138 1
  163   155   138 1
  164   156   143 1
  165   157   147 1
  166   158   151 1
  167   160   159 1
  168   161   160 1
  169   162   161 1
  170   163   161 1
  171   164   163 1
  172   165   159 1
  173   165   164 1
  174   166   165 1
  175   167   166 1
  176   168   167 1
  177   169   168 1
  178   170   169 1
  179   171   170 1
  180   172   171 1
  181   173   172 1
  182   174   153 1
  183   174   173 1
  184   175   159 1
  185   176   159 1
  186   177   164 1
  187   178   168 1
  188   179   172 1
  189   180   179 1
  190   181   179 1
  191   182   179 1
  192   183   178 1
  193   184   178 1
  194   185   178 1
  195   186   177 1
  196   187   177 1
  197   188   177 1
  198   189   176 1
  199   190   176 1
  200   191   176 1
  201   192   175 1
  202   193   175 1
  203   194   175 1
  204   195   160 1
  205   196   160 1
  206   197   158 1
  207   198   158 1
  208   199   158 1
  209   200   157 1
  210   201   157 1
  211   202   157 1
  212   203   156 1
  213   204   156 1
  214   205   156 1
  215   206   155 1
  216   207   155 1
  217   208   155 1
  218   209   154 1
  219   210   154 1
  220   211   154 1
  221   212   141 1
  222   213   146 1
  223   214   145 1
  224   215   142 1
  225   216   142 1
  226   217   174 1
  227   218   173 1
  228   219   171 1
  229   220   170 1
  230   221   169 1
  231   222   140 1
  232   223   167 1
  233   224   166 1
  234   225   165 1
  235   226   163 1
  236   227   161 1
  237   228   139 1
  238   229   139 1
  239   230   153 1
  240   231   152 1
  241   232   150 1
  242   233   149 1
  243   234   148 1
  244   235   162 1
  245   65    153 1
  246   65    174 1
@<TRIPOS>SUBSTRUCTURE
      1 CLA               1 ****               0 ****  **** 
      2 LUT             138 ****               0 ****  **** 
