@<TRIPOS>MOLECULE
Cpptraj generated mol2 file.
  235   246     2     0     0
SMALL
USER_CHARGES


@<TRIPOS>ATOM
      1 CAA        77.4923   58.2554   33.8217 a2         1 CLA     -0.055900
      2 CAB        77.8105   61.9014   42.8542 c8         1 CLA     -0.148500
      3 CAC        70.5927   58.1909   42.4114 a2         1 CLA     -0.012600
      4 CAD        73.2061   55.6144   35.0085 ck         1 CLA      0.398800
      5 NA         76.5539   58.5765   37.1377 ns         1 CLA     -0.225500
      6 CBA        78.7349   58.0149   32.8989 a2         1 CLA     -0.135000
      7 CBB        79.0570   61.8869   43.4330 c0         1 CLA     -0.395200
      8 CBC        70.3547   56.6624   42.1791 a3         1 CLA     -0.037700
      9 CBD        74.6590   56.2751   34.6278 a1         1 CLA     -0.053900
     10 NB         76.4460   60.0399   39.8023 nm         1 CLA     -0.295700
     11 OBD        72.5823   54.7824   34.3801 o2         1 CLA     -0.494600
     12 CGA        79.0142   56.6203   32.4552 c4         1 CLA      0.827000
     13 CGD        75.6290   55.1429   34.3556 c4         1 CLA      0.655300
     14 ND         73.7204   57.5964   37.8955 nm         1 CLA     -0.291600
     15 CED        76.4531   53.0626   35.1209 a3         1 CLA      0.005400
     16 CHA        75.0700   57.0733   35.8553 cs         1 CLA     -0.123800
     17 CHB        78.4311   59.6564   38.2624 aa         1 CLA     -0.291900
     18 CHC        75.0904   60.3221   41.8035 aa         1 CLA     -0.090400
     19 CHD        71.9181   57.5397   39.4945 aa         1 CLA     -0.052000
     20 CMA        79.6995   57.1467   36.6662 a3         1 CLA     -0.230700
     21 CMB        79.8763   61.4850   40.2054 a3         1 CLA     -0.180800
     22 CMC        72.7581   60.1837   43.7495 a3         1 CLA     -0.134000
     23 CMD        70.5602   55.6030   37.4423 a3         1 CLA     -0.141100
     24 C1         79.6814   54.3851   33.1182 a2         1 CLA      0.023000
     25 C1A        76.3014   57.7584   36.0242 ac         1 CLA     -0.015100
     26 C1B        77.8156   60.2020   39.4194 cr         1 CLA      0.054700
     27 C1C        73.9344   59.6311   41.5440 cn         1 CLA     -0.005600
     28 C1D        72.4325   57.1289   38.2778 ap         1 CLA     -0.047300
     29 O1A        78.7268   56.1854   31.2926 o2         1 CLA     -0.610800
     30 O1D        76.3468   55.1110   33.3279 o2         1 CLA     -0.558200
     31 C2         80.3113   53.8910   34.4372 c8         1 CLA     -0.325100
     32 C2A        77.5183   57.6304   35.1820 a1         1 CLA      0.098600
     33 C2B        78.4730   61.0184   40.4291 cb         1 CLA      0.088500
     34 C2C        72.7099   59.5385   42.4212 cb         1 CLA      0.053700
     35 C2D        71.9145   56.2707   37.2904 cb         1 CLA      0.058900
     36 O2A        79.5328   55.8228   33.4363 o1         1 CLA     -0.437200
     37 O2D        75.6791   54.2897   35.4297 o1         1 CLA     -0.357600
     38 C3         81.2489   52.9890   34.4414 c5         1 CLA      0.031200
     39 C3A        78.6505   58.1931   36.1256 a1         1 CLA      0.166800
     40 C3B        77.5519   61.2214   41.4993 cb         1 CLA      0.035000
     41 C3C        71.9096   58.5952   41.8285 cb         1 CLA     -0.089900
     42 C3D        72.9132   56.2299   36.2455 cb         1 CLA     -0.035900
     43 C4         80.9059   51.4969   34.6364 a3         1 CLA     -0.053300
     44 C4A        77.8184   58.8903   37.2527 ac         1 CLA      0.001800
     45 C4B        76.3027   60.5589   41.0790 cn         1 CLA     -0.020900
     46 C4C        72.4629   58.3209   40.5393 cr         1 CLA     -0.044400
     47 C4D        73.9923   56.9669   36.7380 c6         1 CLA     -0.046000
     48 C5         82.6916   53.2828   34.1897 a2         1 CLA     -0.070400
     49 C6         83.2949   54.6313   34.6442 a2         1 CLA      0.043900
     50 C7         83.5779   54.6184   36.1445 a2         1 CLA     -0.150000
     51 C8         84.1256   55.9355   36.7469 a1         1 CLA      0.064200
     52 C9         85.3972   56.3367   36.0543 a3         1 CLA     -0.259300
     53 C10        84.1116   55.9339   38.3343 a2         1 CLA     -0.071900
     54 C11        82.7496   55.9855   38.9908 a2         1 CLA      0.014500
     55 C12        82.8868   56.1829   40.4957 a2         1 CLA     -0.112100
     56 C13        81.5502   56.1273   41.3882 a1         1 CLA      0.089200
     57 C14        80.4407   57.1248   40.8892 a3         1 CLA     -0.239100
     58 C15        81.8581   56.5349   42.8899 a2         1 CLA     -0.102200
     59 C16        82.3307   57.9623   43.1566 a2         1 CLA      0.023900
     60 C17        83.0059   58.2307   44.5477 a2         1 CLA     -0.105700
     61 C18        83.5609   59.6326   44.8551 a1         1 CLA      0.206800
     62 C19        84.7425   59.9732   43.9472 a3         1 CLA     -0.280100
     63 C20        82.3833   60.6845   44.8593 a3         1 CLA     -0.280100
     64 NC         73.6886   58.9863   40.3674 nx         1 CLA     -0.309200
     65 MG         75.0850   58.9710   38.7306 mg         1 CLA      0.895000
     66 HMD3       69.8555   56.4197   37.1700 dc         1 CLA      0.064300
     67 HMD2       70.6565   54.8087   36.7356 dc         1 CLA      0.064300
     68 HMD1       70.4967   55.1925   38.4375 dc         1 CLA      0.064300
     69 HMC3       71.8045   60.4567   44.1348 dc         1 CLA      0.052100
     70 HMC2       73.2895   59.5672   44.4952 dc         1 CLA      0.052100
     71 HMC1       73.3311   61.1249   43.5918 dc         1 CLA      0.052100
     72 HMB3       80.0335   61.6734   39.1601 dc         1 CLA      0.063600
     73 HMB2       79.9677   62.3931   40.8471 dc         1 CLA      0.063600
     74 HMB1       80.6191   60.7551   40.5101 dc         1 CLA      0.063600
     75 HMA3       80.2356   57.4659   37.5554 dc         1 CLA      0.058300
     76 HMA2       79.1221   56.2975   37.0052 dc         1 CLA      0.058300
     77 HMA1       80.4404   56.9127   35.8510 dc         1 CLA      0.058300
     78 HED3       76.2470   52.6765   34.0372 dc         1 CLA      0.079300
     79 HED2       77.5234   53.3364   35.2335 dc         1 CLA      0.079300
     80 HED1       76.2447   52.3522   35.8440 dc         1 CLA      0.079300
     81 HBC3       69.6063   56.5344   41.3726 dc         1 CLA      0.016300
     82 HBC2       71.2860   56.2119   41.7737 dc         1 CLA      0.016300
     83 HBC1       70.1013   56.1904   43.0647 dc         1 CLA      0.016300
     84 HBB2       79.2349   62.3288   44.4574 da         1 CLA      0.183000
     85 HBB1       79.9266   61.4769   42.9015 da         1 CLA      0.183000
     86 HBA2       78.5259   58.6545   31.9814 dc         1 CLA      0.029400
     87 HBA1       79.6414   58.2990   33.3670 dc         1 CLA      0.029400
     88 HAC2       70.6798   58.3717   43.4809 dc         1 CLA      0.029300
     89 HAC1       69.7203   58.6823   42.0636 dc         1 CLA      0.029300
     90 HAA2       76.5967   57.9692   33.2519 dc         1 CLA      0.028700
     91 HAA1       77.4807   59.2990   33.9988 dc         1 CLA      0.028700
     92 H203       82.8047   61.6738   45.2100 dc         1 CLA      0.065600
     93 H202       82.0028   60.8171   43.8768 dc         1 CLA      0.065600
     94 H201       81.6436   60.4068   45.5178 dc         1 CLA      0.065600
     95 H193       85.1096   60.9029   44.2871 dc         1 CLA      0.065600
     96 H192       85.5797   59.2971   44.0763 dc         1 CLA      0.065600
     97 H191       84.4982   60.0730   42.8845 dc         1 CLA      0.065600
     98 H172       82.2103   57.9917   45.1913 dc         1 CLA      0.027600
     99 H171       83.8442   57.4633   44.7563 dc         1 CLA      0.027600
    100 H162       83.0841   58.2340   42.4366 dc         1 CLA      0.002900
    101 H161       81.5128   58.6783   43.1779 dc         1 CLA      0.002900
    102 H152       80.8995   56.3824   43.4784 dc         1 CLA      0.029100
    103 H151       82.6246   55.8083   43.2726 dc         1 CLA      0.029100
    104 H143       80.8341   58.1590   40.8603 dc         1 CLA      0.063600
    105 H142       80.1286   56.8609   39.8883 dc         1 CLA      0.063600
    106 H141       79.6211   57.0951   41.5618 dc         1 CLA      0.063600
    107 H122       83.4814   55.3783   40.9708 dc         1 CLA      0.032500
    108 H121       83.2376   57.2084   40.6272 dc         1 CLA      0.032500
    109 H112       82.1207   56.7585   38.5355 dc         1 CLA      0.006600
    110 H111       82.2428   55.0411   38.8290 dc         1 CLA      0.006600
    111 H102       84.6560   55.0791   38.6322 dc         1 CLA      0.024100
    112 H101       84.6467   56.7839   38.7369 dc         1 CLA      0.024100
    113 HHD        70.8996   57.1591   39.7217 da         1 CLA      0.174300
    114 HHC        75.3401   60.7352   42.8154 da         1 CLA      0.136800
    115 HHB        79.5322   59.7743   38.2116 da         1 CLA      0.138300
    116 HBD        74.6841   57.0312   33.8347 dc         1 CLA      0.107700
    117 HAB        77.0197   62.4197   43.4198 da         1 CLA      0.155200
    118 H93        85.2723   56.7481   35.0227 dc         1 CLA      0.069500
    119 H92        85.8042   57.1084   36.7270 dc         1 CLA      0.069500
    120 H91        86.1270   55.5105   36.1069 dc         1 CLA      0.069500
    121 H8         83.3403   56.5671   36.4912 dc         1 CLA      0.029300
    122 H72        82.6618   54.4063   36.6186 dc         1 CLA      0.044400
    123 H71        84.3261   53.7900   36.2018 dc         1 CLA      0.044400
    124 H62        84.2135   54.7030   34.0632 dc         1 CLA      0.015600
    125 H61        82.5522   55.4135   34.3929 dc         1 CLA      0.015600
    126 H52        83.3270   52.4861   34.6757 dc         1 CLA      0.033200
    127 H51        82.8109   53.1683   33.1253 dc         1 CLA      0.033200
    128 H43        79.8059   51.3469   34.7771 dc         1 CLA      0.037000
    129 H42        81.1805   50.8579   33.7804 dc         1 CLA      0.037000
    130 H41        81.5016   51.1175   35.4325 dc         1 CLA      0.037000
    131 H3A        79.1302   58.9410   35.5552 dc         1 CLA      0.041100
    132 H2A        77.7882   56.5896   35.2409 dc         1 CLA      0.083100
    133 H2         80.2263   54.5752   35.3241 da         1 CLA      0.180900
    134 H18        83.9917   59.5735   45.8361 dc         1 CLA     -0.003900
    135 H13        81.1448   55.1901   41.4284 dc         1 CLA      0.019700
    136 H12        78.7420   53.8823   32.8261 dc         1 CLA      0.120400
    137 H11        80.4029   54.2128   32.3358 dc         1 CLA      0.120400
    138 C1         67.4849   61.2470   49.7339 Z1         2 LUT      0.509236
    139 C2         67.7129   62.5702   50.5317 Z2         2 LUT     -0.434695
    140 C3         66.5338   63.4630   50.7324 Z3         2 LUT      0.437453
    141 O3         67.0137   64.8170   51.0042 S1         2 LUT     -0.547129
    142 C4         65.6319   63.4961   49.5176 Z4         2 LUT     -0.468603
    143 C5         66.1065   62.8190   48.2551 Z5         2 LUT      0.279246
    144 C6         66.9593   61.7486   48.3330 Z6         2 LUT     -0.305473
    145 C7         67.7435   61.3418   47.1523 Z7         2 LUT      0.069402
    146 C8         68.5524   62.1203   46.4443 Z8         2 LUT     -0.191631
    147 C9         69.0082   61.9207   45.0864 Z9         2 LUT      0.196698
    148 C10        69.9470   62.8314   44.6524 Y1         2 LUT     -0.208611
    149 C11        70.5753   62.8132   43.3807 Y2         2 LUT      0.030784
    150 C12        71.7365   63.4478   43.2044 Y3         2 LUT     -0.220316
    151 C13        72.6369   63.4180   42.0589 Y4         2 LUT      0.215937
    152 C14        73.8660   64.0491   42.1553 Y5         2 LUT     -0.185793
    153 C15        74.9792   64.1773   41.2245 Y6         2 LUT     -0.057835
    154 C16        66.4800   60.5672   50.5606 Y7         2 LUT     -0.405615
    155 C17        68.7053   60.3596   49.8520 Y7         2 LUT     -0.405615
    156 C18        65.9261   63.6997   47.0690 Y9         2 LUT     -0.369639
    157 C19        68.4141   60.8935   44.2558 W1         2 LUT     -0.333362
    158 C20        72.2625   62.7008   40.7521 W2         2 LUT     -0.323439
    159 C21        85.9292   65.2226   34.7341 Z1         2 LUT      0.406104
    160 C22        86.5279   64.5214   33.4782 Z2         2 LUT     -0.404965
    161 C23        86.6199   65.2834   32.1053 Z3         2 LUT      0.391255
    162 O23        87.1603   64.2805   31.2263 S1         2 LUT     -0.528210
    163 C24        85.2143   66.1112   31.9065 W6         2 LUT     -0.258361
    164 C25        84.3420   66.2429   32.8898 Z5         2 LUT      0.133546
    165 C26        84.4715   65.4723   34.2390 W8         2 LUT     -0.147008
    166 C27        83.7158   66.2013   35.3513 Z7         2 LUT      0.023843
    167 C28        82.9423   65.5308   36.2146 Z8         2 LUT     -0.216987
    168 C29        82.5716   65.9672   37.5411 Z9         2 LUT      0.206524
    169 C30        81.4859   65.3902   38.0398 Y1         2 LUT     -0.215556
    170 C31        80.6833   65.5304   39.2218 Y2         2 LUT      0.025142
    171 C32        79.4875   64.8667   39.5397 Y3         2 LUT     -0.212209
    172 C33        78.5445   65.2176   40.5929 Y4         2 LUT      0.240937
    173 C34        77.3061   64.5752   40.6358 Y5         2 LUT     -0.218862
    174 C35        76.1938   64.7850   41.5210 Y6         2 LUT     -0.023547
    175 C36        86.9290   66.3564   34.9387 Y7         2 LUT     -0.393485
    176 C37        85.9932   64.3263   35.9832 Y7         2 LUT     -0.393485
    177 C38        83.0242   66.8602   32.5153 Y9         2 LUT     -0.387526
    178 C39        83.0582   67.2503   38.2065 W1         2 LUT     -0.322618
    179 C40        78.8456   66.3474   41.5590 W2         2 LUT     -0.358472
    180 H403       78.6553   67.3101   41.1345 R7         2 LUT      0.097720
    181 H402       78.3570   66.2922   42.5595 R7         2 LUT      0.097720
    182 H401       79.9136   66.3915   41.8182 R7         2 LUT      0.097720
    183 H393       82.2627   67.8729   38.5122 R4         2 LUT      0.082505
    184 H392       83.4904   66.9804   39.1763 R4         2 LUT      0.082505
    185 H391       83.6903   67.8562   37.5806 R4         2 LUT      0.082505
    186 H383       82.2415   66.1967   32.0629 R1         2 LUT      0.104030
    187 H382       82.5176   67.3376   33.4005 R1         2 LUT      0.104030
    188 H381       83.1443   67.7353   31.8294 R1         2 LUT      0.104030
    189 H373       85.5853   63.3401   35.7065 T4         2 LUT      0.089537
    190 H372       86.9630   64.1092   36.2973 T4         2 LUT      0.089537
    191 H371       85.4413   64.7454   36.8550 T4         2 LUT      0.089537
    192 H363       87.9408   65.9557   35.2709 T4         2 LUT      0.089537
    193 H362       87.0081   67.1136   34.1248 T4         2 LUT      0.089537
    194 H361       86.5061   66.9521   35.7638 T4         2 LUT      0.089537
    195 H222       87.5662   64.1664   33.6927 U2         2 LUT      0.127376
    196 H221       85.9823   63.5551   33.2953 U2         2 LUT      0.127376
    197 H203       72.2439   63.3219   39.9496 R7         2 LUT      0.087068
    198 H202       72.9378   61.9258   40.4055 R7         2 LUT      0.087068
    199 H201       71.3075   62.1601   40.7824 R7         2 LUT      0.087068
    200 H193       68.1587   59.9464   44.7268 R4         2 LUT      0.089716
    201 H192       67.5577   61.3257   43.7707 R4         2 LUT      0.089716
    202 H191       69.1390   60.5820   43.4705 R4         2 LUT      0.089716
    203 H183       64.9192   64.1157   47.0611 R1         2 LUT      0.094572
    204 H182       66.7928   64.4639   47.0388 R1         2 LUT      0.094572
    205 H181       65.9630   63.1505   46.1436 R1         2 LUT      0.094572
    206 H173       69.0513   60.1811   50.8558 T4         2 LUT      0.093752
    207 H172       68.4769   59.3778   49.5044 T4         2 LUT      0.093752
    208 H171       69.5444   60.7625   49.2470 T4         2 LUT      0.093752
    209 H163       65.4713   60.9915   50.5181 T4         2 LUT      0.093752
    210 H162       66.2478   59.5991   50.0880 T4         2 LUT      0.093752
    211 H161       66.6615   60.4492   51.5886 T4         2 LUT      0.093752
    212 HO3        66.5013   65.1883   51.6789 Q1         2 LUT      0.300121
    213 H8         68.7092   63.0852   46.9366 U7         2 LUT      0.080784
    214 H7         67.6036   60.3648   46.6792 U6         2 LUT      0.042190
    215 H42        64.7115   62.9346   49.6806 U5         2 LUT      0.145166
    216 H41        65.4370   64.5245   49.2396 U5         2 LUT      0.145166
    217 H35        76.2658   65.3636   42.4415 T3         2 LUT      0.077919
    218 H34        77.0184   63.7891   39.9948 T2         2 LUT      0.073626
    219 H32        79.2194   64.0304   38.8190 T1         2 LUT      0.092510
    220 H31        81.0858   66.4103   39.8020 U9         2 LUT      0.070048
    221 H30        81.0895   64.5165   37.4397 U8         2 LUT      0.085442
    222 H3         65.9844   63.0713   51.5968 U3         2 LUT     -0.031596
    223 H28        82.5626   64.6253   35.9628 U7         2 LUT      0.084728
    224 H27        84.1575   67.1965   35.5741 U6         2 LUT      0.087291
    225 H26        84.0041   64.4724   34.0705 Q6         2 LUT      0.075325
    226 H24        85.1082   66.7323   30.9951 Q5         2 LUT      0.094482
    227 H23        87.4734   66.0476   32.2117 U3         2 LUT     -0.024869
    228 H22        68.2418   62.4286   51.4906 U2         2 LUT      0.127376
    229 H21        68.4606   63.0857   49.8948 U2         2 LUT      0.127376
    230 H15        74.8277   63.6480   40.3030 T3         2 LUT      0.093200
    231 H14        74.1242   64.4955   43.1023 T2         2 LUT      0.068865
    232 H12        72.2325   63.8963   44.0102 T1         2 LUT      0.095507
    233 H11        70.1600   62.1991   42.6195 U9         2 LUT      0.068930
    234 H10        70.3755   63.5184   45.3729 U8         2 LUT      0.083911
    235 H1         86.8839   64.6779   30.4292 Q1         2 LUT      0.297311
@<TRIPOS>BOND
    1     6     1 1
    2     7     2 1
    3     8     3 1
    4     9     4 1
    5    11     4 1
    6    12     6 1
    7    13     9 1
    8    16     9 1
    9    25     5 1
   10    25    16 1
   11    26    10 1
   12    26    17 1
   13    27    18 1
   14    28    14 1
   15    28    19 1
   16    29    12 1
   17    30    13 1
   18    31    24 1
   19    32     1 1
   20    32    25 1
   21    33    21 1
   22    33    26 1
   23    34    22 1
   24    34    27 1
   25    35    23 1
   26    35    28 1
   27    36    12 1
   28    36    24 1
   29    37    13 1
   30    37    15 1
   31    38    31 1
   32    39    20 1
   33    39    32 1
   34    40     2 1
   35    40    33 1
   36    41     3 1
   37    41    34 1
   38    42     4 1
   39    42    35 1
   40    43    38 1
   41    44     5 1
   42    44    17 1
   43    44    39 1
   44    45    10 1
   45    45    18 1
   46    45    40 1
   47    46    19 1
   48    46    41 1
   49    47    14 1
   50    47    16 1
   51    47    42 1
   52    48    38 1
   53    49    48 1
   54    50    49 1
   55    51    50 1
   56    52    51 1
   57    53    51 1
   58    54    53 1
   59    55    54 1
   60    56    55 1
   61    57    56 1
   62    58    56 1
   63    59    58 1
   64    60    59 1
   65    61    60 1
   66    62    61 1
   67    63    61 1
   68    64    27 1
   69    64    46 1
   70    65     5 1
   71    65    10 1
   72    65    64 1
   73    65    14 1
   74    66    23 1
   75    67    23 1
   76    68    23 1
   77    69    22 1
   78    70    22 1
   79    71    22 1
   80    72    21 1
   81    73    21 1
   82    74    21 1
   83    75    20 1
   84    76    20 1
   85    77    20 1
   86    78    15 1
   87    79    15 1
   88    80    15 1
   89    81     8 1
   90    82     8 1
   91    83     8 1
   92    84     7 1
   93    85     7 1
   94    86     6 1
   95    87     6 1
   96    88     3 1
   97    89     3 1
   98    90     1 1
   99    91     1 1
  100    92    63 1
  101    93    63 1
  102    94    63 1
  103    95    62 1
  104    96    62 1
  105    97    62 1
  106    98    60 1
  107    99    60 1
  108   100    59 1
  109   101    59 1
  110   102    58 1
  111   103    58 1
  112   104    57 1
  113   105    57 1
  114   106    57 1
  115   107    55 1
  116   108    55 1
  117   109    54 1
  118   110    54 1
  119   111    53 1
  120   112    53 1
  121   113    19 1
  122   114    18 1
  123   115    17 1
  124   116     9 1
  125   117     2 1
  126   118    52 1
  127   119    52 1
  128   120    52 1
  129   121    51 1
  130   122    50 1
  131   123    50 1
  132   124    49 1
  133   125    49 1
  134   126    48 1
  135   127    48 1
  136   128    43 1
  137   129    43 1
  138   130    43 1
  139   131    39 1
  140   132    32 1
  141   133    31 1
  142   134    61 1
  143   135    56 1
  144   136    24 1
  145   137    24 1
  146   139   138 1
  147   140   139 1
  148   141   140 1
  149   142   140 1
  150   143   142 1
  151   144   138 1
  152   144   143 1
  153   145   144 1
  154   146   145 1
  155   147   146 1
  156   148   147 1
  157   149   148 1
  158   150   149 1
  159   151   150 1
  160   152   151 1
  161   153   152 1
  162   154   138 1
  163   155   138 1
  164   156   143 1
  165   157   147 1
  166   158   151 1
  167   160   159 1
  168   161   160 1
  169   162   161 1
  170   163   161 1
  171   164   163 1
  172   165   159 1
  173   165   164 1
  174   166   165 1
  175   167   166 1
  176   168   167 1
  177   169   168 1
  178   170   169 1
  179   171   170 1
  180   172   171 1
  181   173   172 1
  182   174   153 1
  183   174   173 1
  184   175   159 1
  185   176   159 1
  186   177   164 1
  187   178   168 1
  188   179   172 1
  189   180   179 1
  190   181   179 1
  191   182   179 1
  192   183   178 1
  193   184   178 1
  194   185   178 1
  195   186   177 1
  196   187   177 1
  197   188   177 1
  198   189   176 1
  199   190   176 1
  200   191   176 1
  201   192   175 1
  202   193   175 1
  203   194   175 1
  204   195   160 1
  205   196   160 1
  206   197   158 1
  207   198   158 1
  208   199   158 1
  209   200   157 1
  210   201   157 1
  211   202   157 1
  212   203   156 1
  213   204   156 1
  214   205   156 1
  215   206   155 1
  216   207   155 1
  217   208   155 1
  218   209   154 1
  219   210   154 1
  220   211   154 1
  221   212   141 1
  222   213   146 1
  223   214   145 1
  224   215   142 1
  225   216   142 1
  226   217   174 1
  227   218   173 1
  228   219   171 1
  229   220   170 1
  230   221   169 1
  231   222   140 1
  232   223   167 1
  233   224   166 1
  234   225   165 1
  235   226   163 1
  236   227   161 1
  237   228   139 1
  238   229   139 1
  239   230   153 1
  240   231   152 1
  241   232   150 1
  242   233   149 1
  243   234   148 1
  244   235   162 1
  245   65    153 1
  246   65    174 1
@<TRIPOS>SUBSTRUCTURE
      1 CLA               1 ****               0 ****  **** 
      2 LUT             138 ****               0 ****  **** 
