@<TRIPOS>MOLECULE
Cpptraj generated mol2 file.
  235   246     2     0     0
SMALL
USER_CHARGES


@<TRIPOS>ATOM
      1 CAA        79.1609   59.1080   34.0469 a2         1 CLA     -0.055900
      2 CAB        78.9206   62.7560   43.0833 c8         1 CLA     -0.148500
      3 CAC        72.0811   58.7549   42.5032 a2         1 CLA     -0.012600
      4 CAD        75.1115   56.3095   35.2197 ck         1 CLA      0.398800
      5 NA         78.1541   59.3698   37.5730 ns         1 CLA     -0.225500
      6 CBA        80.5282   58.9403   33.2892 a2         1 CLA     -0.135000
      7 CBB        79.6793   63.8380   43.3836 c0         1 CLA     -0.395200
      8 CBC        72.1029   57.1655   42.3658 a3         1 CLA     -0.037700
      9 CBD        76.5672   56.8640   35.0299 a1         1 CLA     -0.053900
     10 NB         77.7684   60.9842   39.9844 nm         1 CLA     -0.295700
     11 OBD        74.5590   55.5842   34.3878 o2         1 CLA     -0.494600
     12 CGA        81.0435   57.6222   32.9230 c4         1 CLA      0.827000
     13 CGD        77.6088   55.7707   34.9150 c4         1 CLA      0.655300
     14 ND         75.3426   58.5099   38.0398 nm         1 CLA     -0.291600
     15 CED        77.9178   53.5966   35.6685 a3         1 CLA      0.005400
     16 CHA        76.7927   57.9126   36.1747 cs         1 CLA     -0.123800
     17 CHB        79.7344   60.8880   38.4991 aa         1 CLA     -0.291900
     18 CHC        76.4591   61.3139   42.0546 aa         1 CLA     -0.090400
     19 CHD        73.4044   58.4676   39.5486 aa         1 CLA     -0.052000
     20 CMA        81.4397   58.7526   36.8687 a3         1 CLA     -0.230700
     21 CMB        81.1357   62.6095   40.5972 a3         1 CLA     -0.180800
     22 CMC        74.0952   60.5187   44.1919 a3         1 CLA     -0.134000
     23 CMD        72.1203   56.5664   37.3732 a3         1 CLA     -0.141100
     24 C1         82.1328   55.6544   33.9505 a2         1 CLA      0.023000
     25 C1A        77.9848   58.6495   36.3912 ac         1 CLA     -0.015100
     26 C1B        79.0677   61.3579   39.6306 cr         1 CLA      0.054700
     27 C1C        75.2490   60.5333   41.7850 cn         1 CLA     -0.005600
     28 C1D        74.0613   58.0245   38.3760 ap         1 CLA     -0.047300
     29 O1A        80.8487   56.9447   31.9348 o2         1 CLA     -0.610800
     30 O1D        78.4015   55.7060   34.0275 o2         1 CLA     -0.558200
     31 C2         83.1420   55.2905   35.0071 c8         1 CLA     -0.325100
     32 C2A        79.2306   58.6293   35.5366 a1         1 CLA      0.098600
     33 C2B        79.6895   62.0831   40.6664 cb         1 CLA      0.088500
     34 C2C        74.1480   60.2365   42.6768 cb         1 CLA      0.053700
     35 C2D        73.6214   57.1462   37.3301 cb         1 CLA      0.058900
     36 O2A        81.7325   57.0628   34.0352 o1         1 CLA     -0.437200
     37 O2D        77.5475   54.9937   36.0334 o1         1 CLA     -0.357600
     38 C3         84.1836   54.4938   34.7701 c5         1 CLA      0.031200
     39 C3A        80.1869   59.4771   36.4179 a1         1 CLA      0.166800
     40 C3B        78.7599   62.2000   41.7283 cb         1 CLA      0.035000
     41 C3C        73.2962   59.4226   41.9575 cb         1 CLA     -0.089900
     42 C3D        74.7042   56.9765   36.4118 cb         1 CLA     -0.035900
     43 C4         84.1567   53.0304   34.9774 a3         1 CLA     -0.053300
     44 C4A        79.3307   59.9597   37.5569 ac         1 CLA      0.001800
     45 C4B        77.5598   61.4967   41.2857 cn         1 CLA     -0.020900
     46 C4C        73.9031   59.1895   40.6636 cr         1 CLA     -0.044400
     47 C4D        75.6326   57.8940   36.8926 c6         1 CLA     -0.046000
     48 C5         85.5040   55.0281   34.3411 a2         1 CLA     -0.070400
     49 C6         85.9739   56.1190   35.2993 a2         1 CLA      0.043900
     50 C7         86.3390   55.6663   36.7426 a2         1 CLA     -0.150000
     51 C8         86.8613   56.8644   37.6091 a1         1 CLA      0.064200
     52 C9         88.2051   57.3233   37.1018 a3         1 CLA     -0.259300
     53 C10        86.8918   56.5013   39.1014 a2         1 CLA     -0.071900
     54 C11        87.0886   57.6845   40.0655 a2         1 CLA      0.014500
     55 C12        87.0334   57.2840   41.5330 a2         1 CLA     -0.112100
     56 C13        86.8555   58.4657   42.6005 a1         1 CLA      0.089200
     57 C14        88.1026   59.3954   42.6027 a3         1 CLA     -0.239100
     58 C15        86.4161   57.9064   43.9898 a2         1 CLA     -0.102200
     59 C16        86.0408   59.0806   44.9487 a2         1 CLA      0.023900
     60 C17        85.5211   58.5257   46.2600 a2         1 CLA     -0.105700
     61 C18        85.3230   59.7584   47.0984 a1         1 CLA      0.206800
     62 C19        84.3142   60.7905   46.5483 a3         1 CLA     -0.280100
     63 C20        84.8140   59.3023   48.4861 a3         1 CLA     -0.280100
     64 NC         75.0648   59.8826   40.5885 nx         1 CLA     -0.309200
     65 MG         76.5663   59.7575   39.0079 mg         1 CLA      0.895000
     66 HMD3       71.9954   55.6027   36.8836 dc         1 CLA      0.064300
     67 HMD2       71.9218   56.4054   38.4718 dc         1 CLA      0.064300
     68 HMD1       71.4035   57.1712   36.9518 dc         1 CLA      0.064300
     69 HMC3       73.5897   61.4159   44.3774 dc         1 CLA      0.052100
     70 HMC2       73.6810   59.6130   44.7091 dc         1 CLA      0.052100
     71 HMC1       75.0537   60.6712   44.6604 dc         1 CLA      0.052100
     72 HMB3       81.7834   62.1109   41.2392 dc         1 CLA      0.063600
     73 HMB2       81.4991   62.4677   39.5320 dc         1 CLA      0.063600
     74 HMB1       81.0266   63.6890   40.8783 dc         1 CLA      0.063600
     75 HMA3       81.9430   59.1077   37.7987 dc         1 CLA      0.058300
     76 HMA2       81.1405   57.7226   37.0704 dc         1 CLA      0.058300
     77 HMA1       82.1419   58.7365   36.0567 dc         1 CLA      0.058300
     78 HED3       79.0450   53.5130   35.4032 dc         1 CLA      0.079300
     79 HED2       77.9391   53.0625   36.6195 dc         1 CLA      0.079300
     80 HED1       77.3121   53.1575   34.8885 dc         1 CLA      0.079300
     81 HBC3       72.0989   56.9203   41.3235 dc         1 CLA      0.016300
     82 HBC2       72.9722   56.8324   42.9371 dc         1 CLA      0.016300
     83 HBC1       71.1661   56.7340   42.6122 dc         1 CLA      0.016300
     84 HBB2       79.4625   64.3381   44.3713 da         1 CLA      0.183000
     85 HBB1       80.1630   64.4561   42.6082 da         1 CLA      0.183000
     86 HBA2       80.4246   59.5270   32.3938 dc         1 CLA      0.029400
     87 HBA1       81.3154   59.4610   33.8777 dc         1 CLA      0.029400
     88 HAC2       71.9729   59.0412   43.5435 dc         1 CLA      0.029300
     89 HAC1       71.1244   59.1584   42.1071 dc         1 CLA      0.029300
     90 HAA2       78.3903   58.5909   33.4624 dc         1 CLA      0.028700
     91 HAA1       78.8415   60.1146   34.0279 dc         1 CLA      0.028700
     92 H203       85.6113   58.7879   48.9662 dc         1 CLA      0.065600
     93 H202       84.6917   60.2454   48.9793 dc         1 CLA      0.065600
     94 H201       83.8841   58.7708   48.4765 dc         1 CLA      0.065600
     95 H193       84.7234   61.2668   45.6775 dc         1 CLA      0.065600
     96 H192       83.2934   60.5291   46.4189 dc         1 CLA      0.065600
     97 H191       84.2800   61.6874   47.1786 dc         1 CLA      0.065600
     98 H172       84.5775   58.0038   46.1590 dc         1 CLA      0.027600
     99 H171       86.3446   58.0240   46.7520 dc         1 CLA      0.027600
    100 H162       86.8445   59.6987   45.1928 dc         1 CLA      0.002900
    101 H161       85.2913   59.6027   44.3700 dc         1 CLA      0.002900
    102 H152       85.5854   57.2062   43.7487 dc         1 CLA      0.029100
    103 H151       87.3127   57.3391   44.3893 dc         1 CLA      0.029100
    104 H143       87.8720   60.3774   43.0253 dc         1 CLA      0.063600
    105 H142       88.9707   58.9790   43.1831 dc         1 CLA      0.063600
    106 H141       88.3909   59.5308   41.6243 dc         1 CLA      0.063600
    107 H122       86.1292   56.6899   41.5673 dc         1 CLA      0.032500
    108 H121       87.9275   56.6900   41.7568 dc         1 CLA      0.032500
    109 H112       88.0785   58.1284   39.9263 dc         1 CLA      0.006600
    110 H111       86.2907   58.3831   39.8590 dc         1 CLA      0.006600
    111 H102       85.9578   56.0265   39.4137 dc         1 CLA      0.024100
    112 H101       87.7786   55.9025   39.2127 dc         1 CLA      0.024100
    113 HHD        72.3949   58.1232   39.5723 da         1 CLA      0.174300
    114 HHC        76.5248   61.8424   43.0205 da         1 CLA      0.136800
    115 HHB        80.7449   61.2193   38.3047 da         1 CLA      0.138300
    116 HBD        76.4769   57.3603   34.0550 dc         1 CLA      0.107700
    117 HAB        78.3333   62.3266   43.9060 da         1 CLA      0.155200
    118 H93        88.7882   57.9084   37.7999 dc         1 CLA      0.069500
    119 H92        88.7309   56.4961   36.7476 dc         1 CLA      0.069500
    120 H91        88.0127   57.9622   36.2022 dc         1 CLA      0.069500
    121 H8         86.1277   57.6393   37.5916 dc         1 CLA      0.029300
    122 H72        85.5187   55.1372   37.2524 dc         1 CLA      0.044400
    123 H71        87.0579   54.9134   36.6947 dc         1 CLA      0.044400
    124 H62        86.8051   56.6122   34.8129 dc         1 CLA      0.015600
    125 H61        85.2620   56.9137   35.4461 dc         1 CLA      0.015600
    126 H52        86.2696   54.3224   34.1318 dc         1 CLA      0.033200
    127 H51        85.3182   55.4694   33.3459 dc         1 CLA      0.033200
    128 H43        84.1118   52.6236   34.0156 dc         1 CLA      0.037000
    129 H42        85.0791   52.7264   35.4802 dc         1 CLA      0.037000
    130 H41        83.3318   52.8280   35.5742 dc         1 CLA      0.037000
    131 H3A        80.4483   60.3764   35.8728 dc         1 CLA      0.041100
    132 H2A        79.6484   57.6144   35.5912 dc         1 CLA      0.083100
    133 H2         83.1031   55.7629   35.9913 da         1 CLA      0.180900
    134 H18        86.2709   60.2307   47.3420 dc         1 CLA     -0.003900
    135 H13        85.9985   58.9865   42.2323 dc         1 CLA      0.019700
    136 H12        81.2500   55.0250   33.9993 dc         1 CLA      0.120400
    137 H11        82.6940   55.5718   32.9736 dc         1 CLA      0.120400
    138 C1         68.4601   62.1944   49.2304 Z1         2 LUT      0.509236
    139 C2         67.0269   62.0022   49.8436 Z2         2 LUT     -0.434695
    140 C3         66.2033   63.2329   50.2154 Z3         2 LUT      0.437453
    141 O3         66.5405   63.5748   51.6289 S1         2 LUT     -0.547129
    142 C4         66.6141   64.4457   49.3341 Z4         2 LUT     -0.468603
    143 C5         67.6282   64.3683   48.1971 Z5         2 LUT      0.279246
    144 C6         68.3952   63.2856   48.1244 Z6         2 LUT     -0.305473
    145 C7         68.9644   62.8793   46.7828 Z7         2 LUT      0.069402
    146 C8         69.9458   63.4209   46.0303 Z8         2 LUT     -0.191631
    147 C9         70.4806   62.9623   44.7348 Z9         2 LUT      0.196698
    148 C10        71.6623   63.6209   44.3367 Y1         2 LUT     -0.208611
    149 C11        72.5047   63.3223   43.1569 Y2         2 LUT      0.030784
    150 C12        73.6473   64.1243   42.8738 Y3         2 LUT     -0.220316
    151 C13        74.5125   64.0963   41.7528 Y4         2 LUT      0.215937
    152 C14        75.6398   64.8062   41.8667 Y5         2 LUT     -0.185793
    153 C15        76.7812   64.8639   40.9790 Y6         2 LUT     -0.057835
    154 C16        69.0978   60.7970   48.8900 Y7         2 LUT     -0.405615
    155 C17        69.2011   62.7089   50.5439 Y7         2 LUT     -0.405615
    156 C18        67.1401   65.1872   46.9676 Y9         2 LUT     -0.369639
    157 C19        69.9510   61.7182   44.0946 W1         2 LUT     -0.333362
    158 C20        74.0120   63.5692   40.5154 W2         2 LUT     -0.323439
    159 C21        87.6678   65.8784   34.3411 Z1         2 LUT      0.406104
    160 C22        88.2070   65.2678   32.9946 Z2         2 LUT     -0.404965
    161 C23        88.2421   66.2682   31.8563 Z3         2 LUT      0.391255
    162 O23        88.5056   65.3300   30.7595 S1         2 LUT     -0.528210
    163 C24        87.0520   67.1759   31.7547 W6         2 LUT     -0.258361
    164 C25        86.1147   67.3341   32.7698 Z5         2 LUT      0.133546
    165 C26        86.2239   66.4872   34.1060 W8         2 LUT     -0.147008
    166 C27        85.7673   67.0775   35.3588 Z7         2 LUT      0.023843
    167 C28        84.6769   66.7082   36.0678 Z8         2 LUT     -0.216987
    168 C29        84.0189   67.3164   37.2221 Z9         2 LUT      0.206524
    169 C30        82.8432   66.7173   37.5934 Y1         2 LUT     -0.215556
    170 C31        82.0213   67.0357   38.7476 Y2         2 LUT      0.025142
    171 C32        80.8892   66.4032   39.1285 Y3         2 LUT     -0.212209
    172 C33        80.0064   66.6224   40.2244 Y4         2 LUT      0.240937
    173 C34        78.9524   65.7713   40.3414 Y5         2 LUT     -0.218862
    174 C35        77.8391   65.6769   41.2517 Y6         2 LUT     -0.023547
    175 C36        88.8094   66.8667   34.9800 Y7         2 LUT     -0.393485
    176 C37        87.7580   64.5662   35.2243 Y7         2 LUT     -0.393485
    177 C38        84.8511   68.1143   32.4788 Y9         2 LUT     -0.387526
    178 C39        84.6712   68.4259   37.8880 W1         2 LUT     -0.322618
    179 C40        80.2295   67.8292   41.1167 W2         2 LUT     -0.358472
    180 H403       80.1408   68.7705   40.5285 R7         2 LUT      0.097720
    181 H402       79.5481   67.9525   41.9546 R7         2 LUT      0.097720
    182 H401       81.1619   67.8319   41.6555 R7         2 LUT      0.097720
    183 H393       85.7737   68.4448   37.9450 R4         2 LUT      0.082505
    184 H392       84.5128   69.3478   37.2811 R4         2 LUT      0.082505
    185 H391       84.3687   68.5937   38.8487 R4         2 LUT      0.082505
    186 H383       85.0817   68.8328   31.6650 R1         2 LUT      0.104030
    187 H382       83.9675   67.4575   32.2231 R1         2 LUT      0.104030
    188 H381       84.5779   68.7103   33.4044 R1         2 LUT      0.104030
    189 H373       87.1508   63.7797   34.8658 T4         2 LUT      0.089537
    190 H372       88.7198   64.1570   35.4018 T4         2 LUT      0.089537
    191 H371       87.4086   64.8118   36.2209 T4         2 LUT      0.089537
    192 H363       89.2653   67.5738   34.2706 T4         2 LUT      0.089537
    193 H362       88.5065   67.4988   35.7925 T4         2 LUT      0.089537
    194 H361       89.5806   66.2068   35.3292 T4         2 LUT      0.089537
    195 H222       89.2324   64.8894   33.2252 U2         2 LUT      0.127376
    196 H221       87.5886   64.4283   32.6484 U2         2 LUT      0.127376
    197 H203       72.9353   64.0197   40.2110 R7         2 LUT      0.087068
    198 H202       74.6748   63.6558   39.6974 R7         2 LUT      0.087068
    199 H201       73.9539   62.4847   40.6000 R7         2 LUT      0.087068
    200 H193       70.0175   61.6083   42.9908 R4         2 LUT      0.089716
    201 H192       70.3718   60.8412   44.5214 R4         2 LUT      0.089716
    202 H191       68.8531   61.7440   44.1626 R4         2 LUT      0.089716
    203 H183       66.0935   65.5450   46.8398 R1         2 LUT      0.094572
    204 H182       67.6434   66.2061   47.0002 R1         2 LUT      0.094572
    205 H181       67.4076   64.6391   46.0379 R1         2 LUT      0.094572
    206 H173       70.2985   62.6943   50.3475 T4         2 LUT      0.093752
    207 H172       68.9795   63.7328   50.8056 T4         2 LUT      0.093752
    208 H171       68.9825   62.2272   51.5140 T4         2 LUT      0.093752
    209 H163       68.6249   60.3714   47.9590 T4         2 LUT      0.093752
    210 H162       70.2064   60.7402   48.7581 T4         2 LUT      0.093752
    211 H161       68.7984   60.1766   49.7172 T4         2 LUT      0.093752
    212 HO3        65.7872   63.4830   52.2019 Q1         2 LUT      0.300121
    213 H8         70.2140   64.4033   46.3888 U7         2 LUT      0.080784
    214 H7         68.5403   61.9342   46.4128 U6         2 LUT      0.042190
    215 H42        65.7556   64.8517   48.9359 U5         2 LUT      0.145166
    216 H41        66.8865   65.2815   49.9363 U5         2 LUT      0.145166
    217 H35        77.6937   66.2968   42.1107 T3         2 LUT      0.077919
    218 H34        78.8103   65.0625   39.5594 T2         2 LUT      0.073626
    219 H32        80.6597   65.5232   38.5245 T1         2 LUT      0.092510
    220 H31        82.4284   67.8497   39.3474 U9         2 LUT      0.070048
    221 H30        82.4802   65.8391   37.0759 U8         2 LUT      0.085442
    222 H3         65.1171   63.0847   50.1488 U3         2 LUT     -0.031596
    223 H28        84.2551   65.6804   35.7333 U7         2 LUT      0.084728
    224 H27        86.2509   67.9988   35.6228 U6         2 LUT      0.087291
    225 H26        85.4748   65.8023   33.7676 Q6         2 LUT      0.075325
    226 H24        87.0951   67.7986   30.8986 Q5         2 LUT      0.094482
    227 H23        89.1720   66.9774   31.9827 U3         2 LUT     -0.024869
    228 H22        66.3780   61.5769   49.1235 U2         2 LUT      0.127376
    229 H21        66.9717   61.2787   50.6700 U2         2 LUT      0.127376
    230 H15        76.7576   64.2684   40.0275 T3         2 LUT      0.093200
    231 H14        75.7308   65.3910   42.7893 T2         2 LUT      0.068865
    232 H12        73.9632   64.6734   43.7615 T1         2 LUT      0.095507
    233 H11        72.0949   62.5844   42.4903 U9         2 LUT      0.068930
    234 H10        72.0348   64.4519   44.9713 U8         2 LUT      0.083911
    235 H1         88.6716   65.8533   30.0106 Q1         2 LUT      0.297311
@<TRIPOS>BOND
    1     6     1 1
    2     7     2 1
    3     8     3 1
    4     9     4 1
    5    11     4 1
    6    12     6 1
    7    13     9 1
    8    16     9 1
    9    25     5 1
   10    25    16 1
   11    26    10 1
   12    26    17 1
   13    27    18 1
   14    28    14 1
   15    28    19 1
   16    29    12 1
   17    30    13 1
   18    31    24 1
   19    32     1 1
   20    32    25 1
   21    33    21 1
   22    33    26 1
   23    34    22 1
   24    34    27 1
   25    35    23 1
   26    35    28 1
   27    36    12 1
   28    36    24 1
   29    37    13 1
   30    37    15 1
   31    38    31 1
   32    39    20 1
   33    39    32 1
   34    40     2 1
   35    40    33 1
   36    41     3 1
   37    41    34 1
   38    42     4 1
   39    42    35 1
   40    43    38 1
   41    44     5 1
   42    44    17 1
   43    44    39 1
   44    45    10 1
   45    45    18 1
   46    45    40 1
   47    46    19 1
   48    46    41 1
   49    47    14 1
   50    47    16 1
   51    47    42 1
   52    48    38 1
   53    49    48 1
   54    50    49 1
   55    51    50 1
   56    52    51 1
   57    53    51 1
   58    54    53 1
   59    55    54 1
   60    56    55 1
   61    57    56 1
   62    58    56 1
   63    59    58 1
   64    60    59 1
   65    61    60 1
   66    62    61 1
   67    63    61 1
   68    64    27 1
   69    64    46 1
   70    65     5 1
   71    65    10 1
   72    65    64 1
   73    65    14 1
   74    66    23 1
   75    67    23 1
   76    68    23 1
   77    69    22 1
   78    70    22 1
   79    71    22 1
   80    72    21 1
   81    73    21 1
   82    74    21 1
   83    75    20 1
   84    76    20 1
   85    77    20 1
   86    78    15 1
   87    79    15 1
   88    80    15 1
   89    81     8 1
   90    82     8 1
   91    83     8 1
   92    84     7 1
   93    85     7 1
   94    86     6 1
   95    87     6 1
   96    88     3 1
   97    89     3 1
   98    90     1 1
   99    91     1 1
  100    92    63 1
  101    93    63 1
  102    94    63 1
  103    95    62 1
  104    96    62 1
  105    97    62 1
  106    98    60 1
  107    99    60 1
  108   100    59 1
  109   101    59 1
  110   102    58 1
  111   103    58 1
  112   104    57 1
  113   105    57 1
  114   106    57 1
  115   107    55 1
  116   108    55 1
  117   109    54 1
  118   110    54 1
  119   111    53 1
  120   112    53 1
  121   113    19 1
  122   114    18 1
  123   115    17 1
  124   116     9 1
  125   117     2 1
  126   118    52 1
  127   119    52 1
  128   120    52 1
  129   121    51 1
  130   122    50 1
  131   123    50 1
  132   124    49 1
  133   125    49 1
  134   126    48 1
  135   127    48 1
  136   128    43 1
  137   129    43 1
  138   130    43 1
  139   131    39 1
  140   132    32 1
  141   133    31 1
  142   134    61 1
  143   135    56 1
  144   136    24 1
  145   137    24 1
  146   139   138 1
  147   140   139 1
  148   141   140 1
  149   142   140 1
  150   143   142 1
  151   144   138 1
  152   144   143 1
  153   145   144 1
  154   146   145 1
  155   147   146 1
  156   148   147 1
  157   149   148 1
  158   150   149 1
  159   151   150 1
  160   152   151 1
  161   153   152 1
  162   154   138 1
  163   155   138 1
  164   156   143 1
  165   157   147 1
  166   158   151 1
  167   160   159 1
  168   161   160 1
  169   162   161 1
  170   163   161 1
  171   164   163 1
  172   165   159 1
  173   165   164 1
  174   166   165 1
  175   167   166 1
  176   168   167 1
  177   169   168 1
  178   170   169 1
  179   171   170 1
  180   172   171 1
  181   173   172 1
  182   174   153 1
  183   174   173 1
  184   175   159 1
  185   176   159 1
  186   177   164 1
  187   178   168 1
  188   179   172 1
  189   180   179 1
  190   181   179 1
  191   182   179 1
  192   183   178 1
  193   184   178 1
  194   185   178 1
  195   186   177 1
  196   187   177 1
  197   188   177 1
  198   189   176 1
  199   190   176 1
  200   191   176 1
  201   192   175 1
  202   193   175 1
  203   194   175 1
  204   195   160 1
  205   196   160 1
  206   197   158 1
  207   198   158 1
  208   199   158 1
  209   200   157 1
  210   201   157 1
  211   202   157 1
  212   203   156 1
  213   204   156 1
  214   205   156 1
  215   206   155 1
  216   207   155 1
  217   208   155 1
  218   209   154 1
  219   210   154 1
  220   211   154 1
  221   212   141 1
  222   213   146 1
  223   214   145 1
  224   215   142 1
  225   216   142 1
  226   217   174 1
  227   218   173 1
  228   219   171 1
  229   220   170 1
  230   221   169 1
  231   222   140 1
  232   223   167 1
  233   224   166 1
  234   225   165 1
  235   226   163 1
  236   227   161 1
  237   228   139 1
  238   229   139 1
  239   230   153 1
  240   231   152 1
  241   232   150 1
  242   233   149 1
  243   234   148 1
  244   235   162 1
  245   65    153 1
  246   65    174 1
@<TRIPOS>SUBSTRUCTURE
      1 CLA               1 ****               0 ****  **** 
      2 LUT             138 ****               0 ****  **** 
