@<TRIPOS>MOLECULE
Cpptraj generated mol2 file.
  235   246     2     0     0
SMALL
USER_CHARGES


@<TRIPOS>ATOM
      1 CAA        78.3076   58.0356   34.6320 a2         1 CLA     -0.055900
      2 CAB        77.9233   62.5126   43.4527 c8         1 CLA     -0.148500
      3 CAC        71.2837   57.7738   43.2863 a2         1 CLA     -0.012600
      4 CAD        74.1173   55.5437   35.9094 ck         1 CLA      0.398800
      5 NA         77.1587   58.6638   38.0164 ns         1 CLA     -0.225500
      6 CBA        79.5113   57.5419   33.7346 a2         1 CLA     -0.135000
      7 CBB        76.8265   62.9729   44.1481 c0         1 CLA     -0.395200
      8 CBC        71.2918   56.2169   43.3024 a3         1 CLA     -0.037700
      9 CBD        75.5363   56.0884   35.5735 a1         1 CLA     -0.053900
     10 NB         77.0186   60.1459   40.6876 nm         1 CLA     -0.295700
     11 OBD        73.5565   54.7069   35.2571 o2         1 CLA     -0.494600
     12 CGA        79.9550   56.1120   33.7719 c4         1 CLA      0.827000
     13 CGD        76.4208   54.8588   35.4062 c4         1 CLA      0.655300
     14 ND         74.3460   57.6632   38.6656 nm         1 CLA     -0.291600
     15 CED        77.0393   52.6533   36.1177 a3         1 CLA      0.005400
     16 CHA        75.8717   57.0833   36.6778 cs         1 CLA     -0.123800
     17 CHB        78.8813   60.0211   39.1361 aa         1 CLA     -0.291900
     18 CHC        75.6455   60.2819   42.6486 aa         1 CLA     -0.090400
     19 CHD        72.5265   57.4138   40.3016 aa         1 CLA     -0.052000
     20 CMA        80.5909   57.9330   37.5398 a3         1 CLA     -0.230700
     21 CMB        80.0589   62.1572   41.0169 a3         1 CLA     -0.180800
     22 CMC        73.3573   59.6701   44.7648 a3         1 CLA     -0.134000
     23 CMD        71.3956   55.4529   38.0412 a3         1 CLA     -0.141100
     24 C1         81.2517   54.4685   34.9030 a2         1 CLA      0.023000
     25 C1A        77.0522   57.8220   36.9373 ac         1 CLA     -0.015100
     26 C1B        78.2426   60.5463   40.2766 cr         1 CLA      0.054700
     27 C1C        74.4982   59.4801   42.3262 cn         1 CLA     -0.005600
     28 C1D        73.1455   57.1601   39.0585 ap         1 CLA     -0.047300
     29 O1A        79.7661   55.2536   32.8634 o2         1 CLA     -0.610800
     30 O1D        77.2224   54.7728   34.4901 o2         1 CLA     -0.558200
     31 C2         81.8629   54.1864   36.1957 c8         1 CLA     -0.325100
     32 C2A        78.3689   57.7183   36.1589 a1         1 CLA      0.098600
     33 C2B        78.7791   61.4922   41.1814 cb         1 CLA      0.088500
     34 C2C        73.4483   59.1843   43.3097 cb         1 CLA      0.053700
     35 C2D        72.6588   56.2571   38.0099 cb         1 CLA      0.058900
     36 O2A        80.6956   55.8294   34.9098 o1         1 CLA     -0.437200
     37 O2D        76.2134   53.8418   36.2747 o1         1 CLA     -0.357600
     38 C3         82.7794   53.2352   36.4715 c5         1 CLA      0.031200
     39 C3A        79.3348   58.6424   36.9513 a1         1 CLA      0.166800
     40 C3B        77.8564   61.5743   42.2555 cb         1 CLA      0.035000
     41 C3C        72.5411   58.3550   42.6488 cb         1 CLA     -0.089900
     42 C3D        73.6649   56.2272   37.0333 cb         1 CLA     -0.035900
     43 C4         82.2870   51.9317   37.0288 a3         1 CLA     -0.053300
     44 C4A        78.3987   59.1673   38.0631 ac         1 CLA      0.001800
     45 C4B        76.7750   60.6516   41.9377 cn         1 CLA     -0.020900
     46 C4C        73.0350   58.1659   41.2838 cr         1 CLA     -0.044400
     47 C4D        74.6970   57.0459   37.4913 c6         1 CLA     -0.046000
     48 C5         84.2369   53.3921   36.0155 a2         1 CLA     -0.070400
     49 C6         84.9117   54.7777   36.2635 a2         1 CLA      0.043900
     50 C7         85.1747   55.0431   37.7773 a2         1 CLA     -0.150000
     51 C8         86.0126   56.3493   38.1451 a1         1 CLA      0.064200
     52 C9         87.5345   56.1273   37.9627 a3         1 CLA     -0.259300
     53 C10        85.7621   56.8385   39.5766 a2         1 CLA     -0.071900
     54 C11        84.3404   57.0483   39.9664 a2         1 CLA      0.014500
     55 C12        84.2870   58.0273   41.1285 a2         1 CLA     -0.112100
     56 C13        84.9966   57.6519   42.4762 a1         1 CLA      0.089200
     57 C14        84.4445   56.3243   42.9987 a3         1 CLA     -0.239100
     58 C15        84.8676   58.7698   43.4645 a2         1 CLA     -0.102200
     59 C16        83.4821   59.0780   44.0655 a2         1 CLA      0.023900
     60 C17        83.5097   60.1744   45.2016 a2         1 CLA     -0.105700
     61 C18        82.2005   60.3463   46.0316 a1         1 CLA      0.206800
     62 C19        82.4599   61.0637   47.4178 a3         1 CLA     -0.280100
     63 C20        81.0678   61.1004   45.2342 a3         1 CLA     -0.280100
     64 NC         74.2268   58.8524   41.1229 nx         1 CLA     -0.309200
     65 MG         75.6274   58.9309   39.5652 mg         1 CLA      0.895000
     66 HMD3       71.5737   54.4528   37.5997 dc         1 CLA      0.064300
     67 HMD2       71.1154   55.2786   39.0658 dc         1 CLA      0.064300
     68 HMD1       70.6739   55.9715   37.4062 dc         1 CLA      0.064300
     69 HMC3       72.9707   58.8911   45.4142 dc         1 CLA      0.052100
     70 HMC2       74.3185   59.8617   45.2328 dc         1 CLA      0.052100
     71 HMC1       72.7858   60.5841   44.7351 dc         1 CLA      0.052100
     72 HMB3       80.3723   62.2948   39.9738 dc         1 CLA      0.063600
     73 HMB2       80.1358   63.1417   41.5259 dc         1 CLA      0.063600
     74 HMB1       80.7962   61.5581   41.5657 dc         1 CLA      0.063600
     75 HMA3       80.2246   57.1758   38.2161 dc         1 CLA      0.058300
     76 HMA2       81.2011   57.4277   36.7946 dc         1 CLA      0.058300
     77 HMA1       81.1947   58.6904   38.0489 dc         1 CLA      0.058300
     78 HED3       78.0475   52.7187   36.4874 dc         1 CLA      0.079300
     79 HED2       76.5368   51.8653   36.6794 dc         1 CLA      0.079300
     80 HED1       77.0252   52.3168   35.0608 dc         1 CLA      0.079300
     81 HBC3       71.3127   55.9554   42.3167 dc         1 CLA      0.016300
     82 HBC2       72.1607   55.8797   43.7629 dc         1 CLA      0.016300
     83 HBC1       70.4036   55.7571   43.7146 dc         1 CLA      0.016300
     84 HBB2       76.9218   63.6313   45.0506 da         1 CLA      0.183000
     85 HBB1       75.7572   62.7739   43.8982 da         1 CLA      0.183000
     86 HBA2       79.3254   57.7398   32.6734 dc         1 CLA      0.029400
     87 HBA1       80.2844   58.1908   34.0679 dc         1 CLA      0.029400
     88 HAC2       71.2420   58.1449   44.2805 dc         1 CLA      0.029300
     89 HAC1       70.4502   58.3459   42.9466 dc         1 CLA      0.029300
     90 HAA2       77.3244   57.6878   34.2222 dc         1 CLA      0.028700
     91 HAA1       78.3567   59.1564   34.5695 dc         1 CLA      0.028700
     92 H203       81.3153   62.1071   45.3528 dc         1 CLA      0.065600
     93 H202       81.0947   60.8048   44.1551 dc         1 CLA      0.065600
     94 H201       80.1016   60.8725   45.6827 dc         1 CLA      0.065600
     95 H193       82.8512   62.0593   47.2239 dc         1 CLA      0.065600
     96 H192       81.5264   61.1238   47.9289 dc         1 CLA      0.065600
     97 H191       83.2070   60.4311   47.9166 dc         1 CLA      0.065600
     98 H172       84.3976   59.9138   45.8200 dc         1 CLA      0.027600
     99 H171       83.6435   61.0463   44.6534 dc         1 CLA      0.027600
    100 H162       82.7936   59.5365   43.3084 dc         1 CLA      0.002900
    101 H161       82.9610   58.2034   44.4694 dc         1 CLA      0.002900
    102 H152       85.4571   58.6255   44.2797 dc         1 CLA      0.029100
    103 H151       85.3273   59.5946   42.9149 dc         1 CLA      0.029100
    104 H143       84.8074   56.1741   44.0810 dc         1 CLA      0.063600
    105 H142       83.3546   56.3472   43.0101 dc         1 CLA      0.063600
    106 H141       84.9019   55.4866   42.4338 dc         1 CLA      0.063600
    107 H122       84.8869   58.8799   40.7700 dc         1 CLA      0.032500
    108 H121       83.2409   58.3438   41.3330 dc         1 CLA      0.032500
    109 H112       83.6927   57.2981   39.1046 dc         1 CLA      0.006600
    110 H111       83.9292   56.0860   40.3047 dc         1 CLA      0.006600
    111 H102       86.2188   56.0295   40.0882 dc         1 CLA      0.024100
    112 H101       86.2696   57.7880   39.6144 dc         1 CLA      0.024100
    113 HHD        71.5362   56.9803   40.4433 da         1 CLA      0.174300
    114 HHC        75.5703   60.7391   43.6399 da         1 CLA      0.136800
    115 HHB        79.8952   60.3513   38.8777 da         1 CLA      0.138300
    116 HBD        75.4599   56.6251   34.6532 dc         1 CLA      0.107700
    117 HAB        78.9810   62.8853   43.7442 da         1 CLA      0.155200
    118 H93        87.8085   55.2773   38.5790 dc         1 CLA      0.069500
    119 H92        87.7591   55.8868   36.9725 dc         1 CLA      0.069500
    120 H91        88.1392   56.9585   38.3467 dc         1 CLA      0.069500
    121 H8         85.7793   57.0903   37.3685 dc         1 CLA      0.029300
    122 H72        84.1659   55.2029   38.1657 dc         1 CLA      0.044400
    123 H71        85.6629   54.1102   38.1616 dc         1 CLA      0.044400
    124 H62        85.9539   54.8555   35.8836 dc         1 CLA      0.015600
    125 H61        84.3795   55.6419   35.8434 dc         1 CLA      0.015600
    126 H52        84.7643   52.6866   36.5909 dc         1 CLA      0.033200
    127 H51        84.2483   53.1611   34.9501 dc         1 CLA      0.033200
    128 H43        81.2533   52.0473   36.9579 dc         1 CLA      0.037000
    129 H42        82.8068   51.1606   36.4011 dc         1 CLA      0.037000
    130 H41        82.6303   51.7212   38.0560 dc         1 CLA      0.037000
    131 H3A        79.6935   59.3722   36.2605 dc         1 CLA      0.041100
    132 H2A        78.7167   56.6442   36.3204 dc         1 CLA      0.083100
    133 H2         81.6248   54.9055   37.0511 da         1 CLA      0.180900
    134 H18        81.9424   59.3105   46.2233 dc         1 CLA     -0.003900
    135 H13        86.0723   57.4836   42.3802 dc         1 CLA      0.019700
    136 H12        80.4105   53.7748   34.8164 dc         1 CLA      0.120400
    137 H11        81.9567   54.1969   34.1392 dc         1 CLA      0.120400
    138 C1         67.9272   61.1269   50.0435 Z1         2 LUT      0.509236
    139 C2         66.6460   60.9261   50.8770 Z2         2 LUT     -0.434695
    140 C3         65.7237   62.0866   51.0608 Z3         2 LUT      0.437453
    141 O3         65.2823   62.2746   52.3716 S1         2 LUT     -0.547129
    142 C4         66.2561   63.3416   50.3910 Z4         2 LUT     -0.468603
    143 C5         66.6534   63.0567   48.9904 Z5         2 LUT      0.279246
    144 C6         67.5078   62.0297   48.7817 Z6         2 LUT     -0.305473
    145 C7         67.7555   61.5771   47.3869 Z7         2 LUT      0.069402
    146 C8         68.6099   62.2090   46.4923 Z8         2 LUT     -0.191631
    147 C9         69.2528   61.6944   45.2758 Z9         2 LUT      0.196698
    148 C10        70.2707   62.4260   44.7488 Y1         2 LUT     -0.208611
    149 C11        71.0197   62.1719   43.4808 Y2         2 LUT      0.030784
    150 C12        72.0072   62.9793   43.0094 Y3         2 LUT     -0.220316
    151 C13        72.8998   62.9164   41.8580 Y4         2 LUT      0.215937
    152 C14        73.9837   63.7570   41.8161 Y5         2 LUT     -0.185793
    153 C15        75.0667   63.8586   40.8700 Y6         2 LUT     -0.057835
    154 C16        68.5913   59.8230   49.7689 Y7         2 LUT     -0.405615
    155 C17        68.8610   61.9064   51.0759 Y7         2 LUT     -0.405615
    156 C18        65.7991   63.7562   47.9246 Y9         2 LUT     -0.369639
    157 C19        68.7714   60.4107   44.6789 W1         2 LUT     -0.333362
    158 C20        72.4025   62.0982   40.6422 W2         2 LUT     -0.323439
    159 C21        86.4415   65.5845   34.9883 Z1         2 LUT      0.406104
    160 C22        87.1592   65.0302   33.7372 Z2         2 LUT     -0.404965
    161 C23        87.3252   66.0524   32.6133 Z3         2 LUT      0.391255
    162 O23        88.0289   65.4972   31.4746 S1         2 LUT     -0.528210
    163 C24        86.0033   66.8127   32.3909 W6         2 LUT     -0.258361
    164 C25        84.9503   66.8018   33.2177 Z5         2 LUT      0.133546
    165 C26        85.0161   66.0759   34.6065 W8         2 LUT     -0.147008
    166 C27        84.2194   66.6952   35.7271 Z7         2 LUT      0.023843
    167 C28        83.3344   66.0234   36.4677 Z8         2 LUT     -0.216987
    168 C29        82.5660   66.6098   37.5970 Z9         2 LUT      0.206524
    169 C30        81.5187   65.8206   38.0016 Y1         2 LUT     -0.215556
    170 C31        80.5629   66.0263   39.0891 Y2         2 LUT      0.025142
    171 C32        79.4059   65.3561   39.2590 Y3         2 LUT     -0.212209
    172 C33        78.4210   65.5854   40.3374 Y4         2 LUT      0.240937
    173 C34        77.1853   64.8766   40.2642 Y5         2 LUT     -0.218862
    174 C35        76.0555   64.7619   41.1684 Y6         2 LUT     -0.023547
    175 C36        87.3354   66.7301   35.5547 Y7         2 LUT     -0.393485
    176 C37        86.1871   64.5324   36.1180 Y7         2 LUT     -0.393485
    177 C38        83.7637   67.5538   32.7694 Y9         2 LUT     -0.387526
    178 C39        83.0110   67.9182   38.3121 W1         2 LUT     -0.322618
    179 C40        78.7165   66.6982   41.3795 W2         2 LUT     -0.358472
    180 H403       78.5364   67.7000   41.0450 R7         2 LUT      0.097720
    181 H402       78.1636   66.5749   42.3243 R7         2 LUT      0.097720
    182 H401       79.7516   66.7262   41.8141 R7         2 LUT      0.097720
    183 H393       83.8458   68.5081   37.8816 R4         2 LUT      0.082505
    184 H392       82.1674   68.6038   38.4073 R4         2 LUT      0.082505
    185 H391       83.3076   67.7685   39.3837 R4         2 LUT      0.082505
    186 H383       82.8745   66.8869   32.7735 R1         2 LUT      0.104030
    187 H382       83.5893   68.4148   33.3671 R1         2 LUT      0.104030
    188 H381       84.0019   67.9050   31.7470 R1         2 LUT      0.104030
    189 H373       87.1751   64.1011   36.3264 T4         2 LUT      0.089537
    190 H372       85.7870   64.8970   37.0991 T4         2 LUT      0.089537
    191 H371       85.4161   63.7493   35.8596 T4         2 LUT      0.089537
    192 H363       88.3772   66.2629   35.6030 T4         2 LUT      0.089537
    193 H362       87.3578   67.5928   34.9149 T4         2 LUT      0.089537
    194 H361       87.0707   67.0817   36.6122 T4         2 LUT      0.089537
    195 H222       88.2386   64.7725   33.9324 U2         2 LUT      0.127376
    196 H221       86.5748   64.1558   33.3648 U2         2 LUT      0.127376
    197 H203       72.2759   61.0591   40.9304 R7         2 LUT      0.087068
    198 H202       71.4937   62.3890   40.0375 R7         2 LUT      0.087068
    199 H201       73.2050   62.0912   39.9105 R7         2 LUT      0.087068
    200 H193       67.7601   60.4833   44.3543 R4         2 LUT      0.089716
    201 H192       69.2812   60.0439   43.7722 R4         2 LUT      0.089716
    202 H191       68.9190   59.6292   45.3379 R4         2 LUT      0.089716
    203 H183       65.9149   63.3233   46.8857 R1         2 LUT      0.094572
    204 H182       64.7417   63.6836   48.1968 R1         2 LUT      0.094572
    205 H181       66.0759   64.8299   47.9677 R1         2 LUT      0.094572
    206 H173       69.4720   62.5518   50.4425 T4         2 LUT      0.093752
    207 H172       68.3961   62.6525   51.7652 T4         2 LUT      0.093752
    208 H171       69.4957   61.2942   51.6900 T4         2 LUT      0.093752
    209 H163       68.8038   59.2305   50.7138 T4         2 LUT      0.093752
    210 H162       67.8706   59.2461   49.1631 T4         2 LUT      0.093752
    211 H161       69.5313   59.9314   49.2495 T4         2 LUT      0.093752
    212 HO3        65.9887   62.6296   52.9163 Q1         2 LUT      0.300121
    213 H8         69.0073   63.1658   46.7556 U7         2 LUT      0.080784
    214 H7         67.5767   60.4913   47.0996 U6         2 LUT      0.042190
    215 H42        65.3456   64.0170   50.4854 U5         2 LUT      0.145166
    216 H41        66.9775   63.8658   51.0002 U5         2 LUT      0.145166
    217 H35        76.1016   65.2344   42.1631 T3         2 LUT      0.077919
    218 H34        77.1527   64.2466   39.3491 T2         2 LUT      0.073626
    219 H32        78.9953   64.6228   38.5061 T1         2 LUT      0.092510
    220 H31        80.9555   66.6951   39.7833 U9         2 LUT      0.070048
    221 H30        81.2903   64.8735   37.4414 U8         2 LUT      0.085442
    222 H3         64.7500   61.8339   50.5984 U3         2 LUT     -0.031596
    223 H28        82.8497   65.1408   35.9531 U7         2 LUT      0.084728
    224 H27        84.4406   67.6726   36.0803 U6         2 LUT      0.087291
    225 H26        84.4054   65.2550   34.2372 Q6         2 LUT      0.075325
    226 H24        85.8416   67.3022   31.3729 Q5         2 LUT      0.094482
    227 H23        87.9576   66.8500   32.9769 U3         2 LUT     -0.024869
    228 H22        65.9893   60.1606   50.3504 U2         2 LUT      0.127376
    229 H21        67.0029   60.5405   51.8034 U2         2 LUT      0.127376
    230 H15        75.1274   63.2464   39.9843 T3         2 LUT      0.093200
    231 H14        74.1564   64.3591   42.6938 T2         2 LUT      0.068865
    232 H12        72.3306   63.7472   43.6948 T1         2 LUT      0.095507
    233 H11        70.7678   61.3096   42.8601 U9         2 LUT      0.068930
    234 H10        70.4522   63.3818   45.2147 U8         2 LUT      0.083911
    235 H1         87.5199   64.8129   31.0092 Q1         2 LUT      0.297311
@<TRIPOS>BOND
    1     6     1 1
    2     7     2 1
    3     8     3 1
    4     9     4 1
    5    11     4 1
    6    12     6 1
    7    13     9 1
    8    16     9 1
    9    25     5 1
   10    25    16 1
   11    26    10 1
   12    26    17 1
   13    27    18 1
   14    28    14 1
   15    28    19 1
   16    29    12 1
   17    30    13 1
   18    31    24 1
   19    32     1 1
   20    32    25 1
   21    33    21 1
   22    33    26 1
   23    34    22 1
   24    34    27 1
   25    35    23 1
   26    35    28 1
   27    36    12 1
   28    36    24 1
   29    37    13 1
   30    37    15 1
   31    38    31 1
   32    39    20 1
   33    39    32 1
   34    40     2 1
   35    40    33 1
   36    41     3 1
   37    41    34 1
   38    42     4 1
   39    42    35 1
   40    43    38 1
   41    44     5 1
   42    44    17 1
   43    44    39 1
   44    45    10 1
   45    45    18 1
   46    45    40 1
   47    46    19 1
   48    46    41 1
   49    47    14 1
   50    47    16 1
   51    47    42 1
   52    48    38 1
   53    49    48 1
   54    50    49 1
   55    51    50 1
   56    52    51 1
   57    53    51 1
   58    54    53 1
   59    55    54 1
   60    56    55 1
   61    57    56 1
   62    58    56 1
   63    59    58 1
   64    60    59 1
   65    61    60 1
   66    62    61 1
   67    63    61 1
   68    64    27 1
   69    64    46 1
   70    65     5 1
   71    65    10 1
   72    65    64 1
   73    65    14 1
   74    66    23 1
   75    67    23 1
   76    68    23 1
   77    69    22 1
   78    70    22 1
   79    71    22 1
   80    72    21 1
   81    73    21 1
   82    74    21 1
   83    75    20 1
   84    76    20 1
   85    77    20 1
   86    78    15 1
   87    79    15 1
   88    80    15 1
   89    81     8 1
   90    82     8 1
   91    83     8 1
   92    84     7 1
   93    85     7 1
   94    86     6 1
   95    87     6 1
   96    88     3 1
   97    89     3 1
   98    90     1 1
   99    91     1 1
  100    92    63 1
  101    93    63 1
  102    94    63 1
  103    95    62 1
  104    96    62 1
  105    97    62 1
  106    98    60 1
  107    99    60 1
  108   100    59 1
  109   101    59 1
  110   102    58 1
  111   103    58 1
  112   104    57 1
  113   105    57 1
  114   106    57 1
  115   107    55 1
  116   108    55 1
  117   109    54 1
  118   110    54 1
  119   111    53 1
  120   112    53 1
  121   113    19 1
  122   114    18 1
  123   115    17 1
  124   116     9 1
  125   117     2 1
  126   118    52 1
  127   119    52 1
  128   120    52 1
  129   121    51 1
  130   122    50 1
  131   123    50 1
  132   124    49 1
  133   125    49 1
  134   126    48 1
  135   127    48 1
  136   128    43 1
  137   129    43 1
  138   130    43 1
  139   131    39 1
  140   132    32 1
  141   133    31 1
  142   134    61 1
  143   135    56 1
  144   136    24 1
  145   137    24 1
  146   139   138 1
  147   140   139 1
  148   141   140 1
  149   142   140 1
  150   143   142 1
  151   144   138 1
  152   144   143 1
  153   145   144 1
  154   146   145 1
  155   147   146 1
  156   148   147 1
  157   149   148 1
  158   150   149 1
  159   151   150 1
  160   152   151 1
  161   153   152 1
  162   154   138 1
  163   155   138 1
  164   156   143 1
  165   157   147 1
  166   158   151 1
  167   160   159 1
  168   161   160 1
  169   162   161 1
  170   163   161 1
  171   164   163 1
  172   165   159 1
  173   165   164 1
  174   166   165 1
  175   167   166 1
  176   168   167 1
  177   169   168 1
  178   170   169 1
  179   171   170 1
  180   172   171 1
  181   173   172 1
  182   174   153 1
  183   174   173 1
  184   175   159 1
  185   176   159 1
  186   177   164 1
  187   178   168 1
  188   179   172 1
  189   180   179 1
  190   181   179 1
  191   182   179 1
  192   183   178 1
  193   184   178 1
  194   185   178 1
  195   186   177 1
  196   187   177 1
  197   188   177 1
  198   189   176 1
  199   190   176 1
  200   191   176 1
  201   192   175 1
  202   193   175 1
  203   194   175 1
  204   195   160 1
  205   196   160 1
  206   197   158 1
  207   198   158 1
  208   199   158 1
  209   200   157 1
  210   201   157 1
  211   202   157 1
  212   203   156 1
  213   204   156 1
  214   205   156 1
  215   206   155 1
  216   207   155 1
  217   208   155 1
  218   209   154 1
  219   210   154 1
  220   211   154 1
  221   212   141 1
  222   213   146 1
  223   214   145 1
  224   215   142 1
  225   216   142 1
  226   217   174 1
  227   218   173 1
  228   219   171 1
  229   220   170 1
  230   221   169 1
  231   222   140 1
  232   223   167 1
  233   224   166 1
  234   225   165 1
  235   226   163 1
  236   227   161 1
  237   228   139 1
  238   229   139 1
  239   230   153 1
  240   231   152 1
  241   232   150 1
  242   233   149 1
  243   234   148 1
  244   235   162 1
  245   65    153 1
  246   65    174 1
@<TRIPOS>SUBSTRUCTURE
      1 CLA               1 ****               0 ****  **** 
      2 LUT             138 ****               0 ****  **** 
