@<TRIPOS>MOLECULE
Cpptraj generated mol2 file.
  235   246     2     0     0
SMALL
USER_CHARGES


@<TRIPOS>ATOM
      1 CAA        80.5540   58.8022   34.6338 a2         1 CLA     -0.055900
      2 CAB        79.6411   62.4409   43.8159 c8         1 CLA     -0.148500
      3 CAC        72.8790   58.7135   42.4612 a2         1 CLA     -0.012600
      4 CAD        76.4946   56.0469   35.7909 ck         1 CLA      0.398800
      5 NA         79.3413   59.3091   37.9718 ns         1 CLA     -0.225500
      6 CBA        81.8009   58.5639   33.7321 a2         1 CLA     -0.135000
      7 CBB        80.6670   62.2607   44.7032 c0         1 CLA     -0.395200
      8 CBC        73.0390   57.2241   42.6736 a3         1 CLA     -0.037700
      9 CBD        77.9421   56.6163   35.5963 a1         1 CLA     -0.053900
     10 NB         78.8749   60.8152   40.5747 nm         1 CLA     -0.295700
     11 OBD        76.0262   55.1313   35.1336 o2         1 CLA     -0.494600
     12 CGA        82.2211   57.0316   33.6529 c4         1 CLA      0.827000
     13 CGD        78.9589   55.5282   35.5504 c4         1 CLA      0.655300
     14 ND         76.5074   58.5601   38.2497 nm         1 CLA     -0.291600
     15 CED        79.7189   53.5231   36.7754 a3         1 CLA      0.005400
     16 CHA        78.2598   57.6702   36.5801 cs         1 CLA     -0.123800
     17 CHB        80.9895   60.5647   39.2165 aa         1 CLA     -0.291900
     18 CHC        77.2649   61.1795   42.4506 aa         1 CLA     -0.090400
     19 CHD        74.4713   58.4227   39.7139 aa         1 CLA     -0.052000
     20 CMA        82.9057   58.7065   37.6168 a3         1 CLA     -0.230700
     21 CMB        82.1069   62.4607   41.4962 a3         1 CLA     -0.180800
     22 CMC        74.7015   60.6677   44.2735 a3         1 CLA     -0.134000
     23 CMD        73.5891   56.2397   37.6859 a3         1 CLA     -0.141100
     24 C1         83.1268   55.1897   34.8127 a2         1 CLA      0.023000
     25 C1A        79.4068   58.4078   36.8851 ac         1 CLA     -0.015100
     26 C1B        80.2277   61.0513   40.3111 cr         1 CLA      0.054700
     27 C1C        76.1485   60.4834   42.0477 cn         1 CLA     -0.005600
     28 C1D        75.3041   58.0213   38.6056 ap         1 CLA     -0.047300
     29 O1A        82.0396   56.2569   32.7940 o2         1 CLA     -0.610800
     30 O1D        79.7540   55.3921   34.6548 o2         1 CLA     -0.558200
     31 C2         84.0840   55.0150   35.9754 c8         1 CLA     -0.325100
     32 C2A        80.7329   58.3561   36.1182 a1         1 CLA      0.098600
     33 C2B        80.7161   61.9135   41.3726 cb         1 CLA      0.088500
     34 C2C        74.9499   60.2214   42.8273 cb         1 CLA      0.053700
     35 C2D        74.8672   57.0477   37.6232 cb         1 CLA      0.058900
     36 O2A        82.9032   56.6360   34.8279 o1         1 CLA     -0.437200
     37 O2D        78.8265   54.6849   36.6421 o1         1 CLA     -0.357600
     38 C3         85.3894   54.6997   36.0260 c5         1 CLA      0.031200
     39 C3A        81.5611   59.3880   37.0031 a1         1 CLA      0.166800
     40 C3B        79.6634   61.9873   42.3486 cb         1 CLA      0.035000
     41 C3C        74.0904   59.4739   42.0152 cb         1 CLA     -0.089900
     42 C3D        75.9913   56.8487   36.8393 cb         1 CLA     -0.035900
     43 C4         85.8999   53.3027   35.7501 a3         1 CLA     -0.053300
     44 C4A        80.5742   59.7790   38.1628 ac         1 CLA      0.001800
     45 C4B        78.5401   61.3943   41.7646 cn         1 CLA     -0.020900
     46 C4C        74.7919   59.3251   40.7716 cr         1 CLA     -0.044400
     47 C4D        77.0149   57.7648   37.2635 c6         1 CLA     -0.046000
     48 C5         86.4121   55.8067   36.0669 a2         1 CLA     -0.070400
     49 C6         87.1266   55.9966   37.4174 a2         1 CLA      0.043900
     50 C7         88.0317   57.2240   37.3033 a2         1 CLA     -0.150000
     51 C8         88.9568   57.5000   38.5106 a1         1 CLA      0.064200
     52 C9         90.2205   56.6048   38.5138 a3         1 CLA     -0.259300
     53 C10        88.1899   57.4590   39.8862 a2         1 CLA     -0.071900
     54 C11        89.0003   58.0166   41.0323 a2         1 CLA      0.014500
     55 C12        88.3394   57.7624   42.3504 a2         1 CLA     -0.112100
     56 C13        88.8871   58.3146   43.6868 a1         1 CLA      0.089200
     57 C14        90.4715   58.1943   43.8961 a3         1 CLA     -0.239100
     58 C15        88.2052   57.7066   44.9024 a2         1 CLA     -0.102200
     59 C16        88.6682   57.9742   46.3801 a2         1 CLA      0.023900
     60 C17        88.6324   59.4178   46.7972 a2         1 CLA     -0.105700
     61 C18        87.2395   60.1856   46.7486 a1         1 CLA      0.206800
     62 C19        85.9907   59.1708   47.2149 a3         1 CLA     -0.280100
     63 C20        87.3007   61.5044   47.5947 a3         1 CLA     -0.280100
     64 NC         76.0407   59.9286   40.8393 nx         1 CLA     -0.309200
     65 MG         77.5694   59.8018   39.3131 mg         1 CLA      0.895000
     66 HMD3       72.7685   56.9198   37.5467 dc         1 CLA      0.064300
     67 HMD2       73.5201   55.3436   36.9958 dc         1 CLA      0.064300
     68 HMD1       73.4047   55.9722   38.7403 dc         1 CLA      0.064300
     69 HMC3       74.9634   59.8613   44.8906 dc         1 CLA      0.052100
     70 HMC2       75.1047   61.6810   44.4734 dc         1 CLA      0.052100
     71 HMC1       73.6371   60.7809   44.4411 dc         1 CLA      0.052100
     72 HMB3       82.8437   61.6159   41.4926 dc         1 CLA      0.063600
     73 HMB2       82.3488   63.0779   40.7062 dc         1 CLA      0.063600
     74 HMB1       82.2006   63.1079   42.4299 dc         1 CLA      0.063600
     75 HMA3       82.7729   57.9074   38.3104 dc         1 CLA      0.058300
     76 HMA2       83.4411   58.3162   36.6926 dc         1 CLA      0.058300
     77 HMA1       83.5910   59.4748   37.9767 dc         1 CLA      0.058300
     78 HED3       79.5365   52.8453   35.9966 dc         1 CLA      0.079300
     79 HED2       80.7549   53.8484   36.7933 dc         1 CLA      0.079300
     80 HED1       79.4677   52.9972   37.7299 dc         1 CLA      0.079300
     81 HBC3       72.3149   56.8777   43.3894 dc         1 CLA      0.016300
     82 HBC2       73.0650   56.5289   41.7353 dc         1 CLA      0.016300
     83 HBC1       73.9460   57.0965   43.3252 dc         1 CLA      0.016300
     84 HBB2       80.5839   62.5640   45.7581 da         1 CLA      0.183000
     85 HBB1       81.5289   61.6217   44.5482 da         1 CLA      0.183000
     86 HBA2       81.6383   58.8426   32.7102 dc         1 CLA      0.029400
     87 HBA1       82.6537   59.0776   34.2624 dc         1 CLA      0.029400
     88 HAC2       72.4510   58.9958   43.4090 dc         1 CLA      0.029300
     89 HAC1       72.0651   58.9136   41.8132 dc         1 CLA      0.029300
     90 HAA2       79.6914   58.3110   34.1492 dc         1 CLA      0.028700
     91 HAA1       80.3024   59.8563   34.6119 dc         1 CLA      0.028700
     92 H203       88.1282   62.1870   47.3430 dc         1 CLA      0.065600
     93 H202       86.3836   62.1250   47.3442 dc         1 CLA      0.065600
     94 H201       87.1610   61.1687   48.6263 dc         1 CLA      0.065600
     95 H193       85.5457   58.6841   46.3227 dc         1 CLA      0.065600
     96 H192       86.2675   58.3757   47.9030 dc         1 CLA      0.065600
     97 H191       85.2508   59.8562   47.6557 dc         1 CLA      0.065600
     98 H172       88.8008   59.3310   47.8442 dc         1 CLA      0.027600
     99 H171       89.4024   60.0175   46.3134 dc         1 CLA      0.027600
    100 H162       88.1021   57.3201   47.0576 dc         1 CLA      0.002900
    101 H161       89.6862   57.5264   46.4012 dc         1 CLA      0.002900
    102 H152       87.1266   57.9286   44.7866 dc         1 CLA      0.029100
    103 H151       88.2949   56.6264   44.8385 dc         1 CLA      0.029100
    104 H143       90.8432   58.6346   44.7920 dc         1 CLA      0.063600
    105 H142       90.6609   57.1107   43.9832 dc         1 CLA      0.063600
    106 H141       90.8999   58.6889   42.9976 dc         1 CLA      0.063600
    107 H122       87.3650   58.1019   42.2617 dc         1 CLA      0.032500
    108 H121       88.2554   56.7433   42.4427 dc         1 CLA      0.032500
    109 H112       90.0023   57.5912   40.9800 dc         1 CLA      0.006600
    110 H111       89.0617   59.0604   40.7916 dc         1 CLA      0.006600
    111 H102       87.2151   57.9626   39.8668 dc         1 CLA      0.024100
    112 H101       87.9591   56.4794   40.1672 dc         1 CLA      0.024100
    113 HHD        73.4840   57.9594   39.9067 da         1 CLA      0.174300
    114 HHC        77.1413   61.5678   43.4204 da         1 CLA      0.136800
    115 HHB        82.0603   60.8388   39.2802 da         1 CLA      0.138300
    116 HBD        77.9238   57.1520   34.6190 dc         1 CLA      0.107700
    117 HAB        78.7519   62.9026   44.2335 da         1 CLA      0.155200
    118 H93        90.8973   57.1940   39.0539 dc         1 CLA      0.069500
    119 H92        90.0313   55.5723   38.9008 dc         1 CLA      0.069500
    120 H91        90.5922   56.5420   37.4942 dc         1 CLA      0.069500
    121 H8         89.1966   58.5503   38.3030 dc         1 CLA      0.029300
    122 H72        88.5693   57.0425   36.3876 dc         1 CLA      0.044400
    123 H71        87.4440   58.1299   37.1446 dc         1 CLA      0.044400
    124 H62        86.4121   56.2586   38.2445 dc         1 CLA      0.015600
    125 H61        87.6420   55.1227   37.6975 dc         1 CLA      0.015600
    126 H52        87.2318   55.6652   35.3289 dc         1 CLA      0.033200
    127 H51        85.9004   56.7554   35.8154 dc         1 CLA      0.033200
    128 H43        85.1325   52.5581   35.5367 dc         1 CLA      0.037000
    129 H42        86.5765   53.4085   34.9194 dc         1 CLA      0.037000
    130 H41        86.5550   53.0152   36.5716 dc         1 CLA      0.037000
    131 H3A        81.8611   60.2268   36.3836 dc         1 CLA      0.041100
    132 H2A        81.0513   57.3100   36.3700 dc         1 CLA      0.083100
    133 H2         83.5214   54.7037   36.9058 da         1 CLA      0.180900
    134 H18        87.1512   60.4219   45.6843 dc         1 CLA     -0.003900
    135 H13        88.5125   59.3250   43.6413 dc         1 CLA      0.019700
    136 H12        82.2658   54.5807   34.9401 dc         1 CLA      0.120400
    137 H11        83.7527   54.8003   34.0053 dc         1 CLA      0.120400
    138 C1         69.8439   62.1967   49.9472 Z1         2 LUT      0.509236
    139 C2         68.4785   61.8754   50.4458 Z2         2 LUT     -0.434695
    140 C3         67.6328   63.1574   50.7373 Z3         2 LUT      0.437453
    141 O3         67.7598   63.5812   52.0944 S1         2 LUT     -0.547129
    142 C4         68.1473   64.3017   49.8771 Z4         2 LUT     -0.468603
    143 C5         68.8282   64.0063   48.5534 Z5         2 LUT      0.279246
    144 C6         69.8318   63.0577   48.6366 Z6         2 LUT     -0.305473
    145 C7         70.3874   62.4637   47.4053 Z7         2 LUT      0.069402
    146 C8         71.1394   63.1020   46.4732 Z8         2 LUT     -0.191631
    147 C9         71.4924   62.6830   45.1271 Z9         2 LUT      0.196698
    148 C10        72.3241   63.5128   44.3862 Y1         2 LUT     -0.208611
    149 C11        72.8829   63.4422   43.0516 Y2         2 LUT      0.030784
    150 C12        74.0219   64.0201   42.6423 Y3         2 LUT     -0.220316
    151 C13        74.8516   63.8399   41.4707 Y4         2 LUT      0.215937
    152 C14        75.9652   64.6725   41.4287 Y5         2 LUT     -0.185793
    153 C15        77.1527   64.5936   40.6653 Y6         2 LUT     -0.057835
    154 C16        70.3255   60.7063   49.8448 Y7         2 LUT     -0.405615
    155 C17        70.6433   62.8095   51.1150 Y7         2 LUT     -0.405615
    156 C18        68.1831   64.6422   47.3174 Y9         2 LUT     -0.369639
    157 C19        70.9610   61.3151   44.6221 W1         2 LUT     -0.333362
    158 C20        74.4911   62.8005   40.3885 W2         2 LUT     -0.323439
    159 C21        88.7273   66.0285   34.8028 Z1         2 LUT      0.406104
    160 C22        89.5088   65.2306   33.6488 Z2         2 LUT     -0.404965
    161 C23        89.5674   65.9923   32.3753 Z3         2 LUT      0.391255
    162 O23        90.0903   65.0774   31.3931 S1         2 LUT     -0.528210
    163 C24        88.3731   66.8329   31.9914 W6         2 LUT     -0.258361
    164 C25        87.2822   66.8567   32.8111 Z5         2 LUT      0.133546
    165 C26        87.2758   66.2399   34.2530 W8         2 LUT     -0.147008
    166 C27        86.3042   66.8224   35.2905 Z7         2 LUT      0.023843
    167 C28        85.2605   66.2416   35.9159 Z8         2 LUT     -0.216987
    168 C29        84.6388   66.7003   37.1562 Z9         2 LUT      0.206524
    169 C30        83.5576   66.1073   37.4898 Y1         2 LUT     -0.215556
    170 C31        82.7371   66.1870   38.6734 Y2         2 LUT      0.025142
    171 C32        81.4470   65.6439   38.7556 Y3         2 LUT     -0.212209
    172 C33        80.6541   65.8127   39.9569 Y4         2 LUT      0.240937
    173 C34        79.3739   65.2450   40.0111 Y5         2 LUT     -0.218862
    174 C35        78.2826   65.2322   40.9422 Y6         2 LUT     -0.023547
    175 C36        89.5187   67.2299   35.2204 Y7         2 LUT     -0.393485
    176 C37        88.7099   64.9755   35.9211 Y7         2 LUT     -0.393485
    177 C38        86.0733   67.6095   32.3707 Y9         2 LUT     -0.387526
    178 C39        85.4066   67.6833   38.0491 W1         2 LUT     -0.322618
    179 C40        81.2886   66.5172   41.1205 W2         2 LUT     -0.358472
    180 H403       81.5390   67.5412   40.9569 R7         2 LUT      0.097720
    181 H402       80.7569   66.4070   42.0701 R7         2 LUT      0.097720
    182 H401       82.2389   66.1655   41.3165 R7         2 LUT      0.097720
    183 H393       85.6407   68.6627   37.6569 R4         2 LUT      0.082505
    184 H392       84.7908   67.8297   38.9047 R4         2 LUT      0.082505
    185 H391       86.3149   67.2330   38.3605 R4         2 LUT      0.082505
    186 H383       85.1989   66.9334   32.3564 R1         2 LUT      0.104030
    187 H382       85.8410   68.3768   33.0751 R1         2 LUT      0.104030
    188 H381       86.1804   68.0904   31.3537 R1         2 LUT      0.104030
    189 H373       88.0903   65.3682   36.7988 T4         2 LUT      0.089537
    190 H372       88.2344   64.0913   35.5429 T4         2 LUT      0.089537
    191 H371       89.6701   64.5725   36.2184 T4         2 LUT      0.089537
    192 H363       89.0690   67.7634   36.0225 T4         2 LUT      0.089537
    193 H362       90.5719   67.0200   35.4125 T4         2 LUT      0.089537
    194 H361       89.5985   67.8367   34.3279 T4         2 LUT      0.089537
    195 H222       90.5819   65.0005   33.9501 U2         2 LUT      0.127376
    196 H221       89.1514   64.2492   33.3191 U2         2 LUT      0.127376
    197 H203       75.4989   62.5105   39.9570 R7         2 LUT      0.087068
    198 H202       73.9497   61.9674   40.8400 R7         2 LUT      0.087068
    199 H201       73.8882   63.2692   39.6609 R7         2 LUT      0.087068
    200 H193       71.4979   60.4729   45.2295 R4         2 LUT      0.089716
    201 H192       69.8674   61.2093   44.7331 R4         2 LUT      0.089716
    202 H191       71.1825   61.2615   43.5237 R4         2 LUT      0.089716
    203 H183       68.6631   65.6323   47.1529 R1         2 LUT      0.094572
    204 H182       68.1757   64.0615   46.3647 R1         2 LUT      0.094572
    205 H181       67.2036   65.0128   47.5102 R1         2 LUT      0.094572
    206 H173       70.2187   63.7994   51.2763 T4         2 LUT      0.093752
    207 H172       70.4193   62.3680   52.0896 T4         2 LUT      0.093752
    208 H171       71.6879   62.9293   50.9285 T4         2 LUT      0.093752
    209 H163       71.3597   60.6332   49.5281 T4         2 LUT      0.093752
    210 H162       70.1954   60.1075   50.8071 T4         2 LUT      0.093752
    211 H161       69.6268   60.1222   49.2420 T4         2 LUT      0.093752
    212 HO3        67.1939   63.0238   52.6822 Q1         2 LUT      0.300121
    213 H8         71.1644   64.1971   46.6471 U7         2 LUT      0.080784
    214 H7         69.8918   61.4841   47.1601 U6         2 LUT      0.042190
    215 H42        67.2696   64.9440   49.5953 U5         2 LUT      0.145166
    216 H41        68.7074   65.0375   50.3743 U5         2 LUT      0.145166
    217 H35        78.3297   65.9120   41.7738 T3         2 LUT      0.077919
    218 H34        79.1730   64.6772   39.0917 T2         2 LUT      0.073626
    219 H32        80.9812   65.0946   37.9315 T1         2 LUT      0.092510
    220 H31        83.0638   66.8645   39.4574 U9         2 LUT      0.070048
    221 H30        83.0666   65.4473   36.7516 U8         2 LUT      0.085442
    222 H3         66.5451   63.0701   50.4385 U3         2 LUT     -0.031596
    223 H28        84.8124   65.3742   35.5448 U7         2 LUT      0.084728
    224 H27        86.6039   67.8007   35.5644 U6         2 LUT      0.087291
    225 H26        86.8143   65.2256   34.1853 Q6         2 LUT      0.075325
    226 H24        88.3627   67.3089   30.9871 Q5         2 LUT      0.094482
    227 H23        90.3038   66.7936   32.5317 U3         2 LUT     -0.024869
    228 H22        67.9842   61.4416   49.6568 U2         2 LUT      0.127376
    229 H21        68.4934   61.2532   51.3282 U2         2 LUT      0.127376
    230 H15        77.2587   63.8936   39.9138 T3         2 LUT      0.093200
    231 H14        76.0725   65.4565   42.1627 T2         2 LUT      0.068865
    232 H12        74.4717   64.6908   43.3999 T1         2 LUT      0.095507
    233 H11        72.4670   62.7734   42.3363 U9         2 LUT      0.068930
    234 H10        72.6373   64.4010   44.9894 U8         2 LUT      0.083911
    235 H1         89.9297   65.2687   30.4603 Q1         2 LUT      0.297311
@<TRIPOS>BOND
    1     6     1 1
    2     7     2 1
    3     8     3 1
    4     9     4 1
    5    11     4 1
    6    12     6 1
    7    13     9 1
    8    16     9 1
    9    25     5 1
   10    25    16 1
   11    26    10 1
   12    26    17 1
   13    27    18 1
   14    28    14 1
   15    28    19 1
   16    29    12 1
   17    30    13 1
   18    31    24 1
   19    32     1 1
   20    32    25 1
   21    33    21 1
   22    33    26 1
   23    34    22 1
   24    34    27 1
   25    35    23 1
   26    35    28 1
   27    36    12 1
   28    36    24 1
   29    37    13 1
   30    37    15 1
   31    38    31 1
   32    39    20 1
   33    39    32 1
   34    40     2 1
   35    40    33 1
   36    41     3 1
   37    41    34 1
   38    42     4 1
   39    42    35 1
   40    43    38 1
   41    44     5 1
   42    44    17 1
   43    44    39 1
   44    45    10 1
   45    45    18 1
   46    45    40 1
   47    46    19 1
   48    46    41 1
   49    47    14 1
   50    47    16 1
   51    47    42 1
   52    48    38 1
   53    49    48 1
   54    50    49 1
   55    51    50 1
   56    52    51 1
   57    53    51 1
   58    54    53 1
   59    55    54 1
   60    56    55 1
   61    57    56 1
   62    58    56 1
   63    59    58 1
   64    60    59 1
   65    61    60 1
   66    62    61 1
   67    63    61 1
   68    64    27 1
   69    64    46 1
   70    65     5 1
   71    65    10 1
   72    65    64 1
   73    65    14 1
   74    66    23 1
   75    67    23 1
   76    68    23 1
   77    69    22 1
   78    70    22 1
   79    71    22 1
   80    72    21 1
   81    73    21 1
   82    74    21 1
   83    75    20 1
   84    76    20 1
   85    77    20 1
   86    78    15 1
   87    79    15 1
   88    80    15 1
   89    81     8 1
   90    82     8 1
   91    83     8 1
   92    84     7 1
   93    85     7 1
   94    86     6 1
   95    87     6 1
   96    88     3 1
   97    89     3 1
   98    90     1 1
   99    91     1 1
  100    92    63 1
  101    93    63 1
  102    94    63 1
  103    95    62 1
  104    96    62 1
  105    97    62 1
  106    98    60 1
  107    99    60 1
  108   100    59 1
  109   101    59 1
  110   102    58 1
  111   103    58 1
  112   104    57 1
  113   105    57 1
  114   106    57 1
  115   107    55 1
  116   108    55 1
  117   109    54 1
  118   110    54 1
  119   111    53 1
  120   112    53 1
  121   113    19 1
  122   114    18 1
  123   115    17 1
  124   116     9 1
  125   117     2 1
  126   118    52 1
  127   119    52 1
  128   120    52 1
  129   121    51 1
  130   122    50 1
  131   123    50 1
  132   124    49 1
  133   125    49 1
  134   126    48 1
  135   127    48 1
  136   128    43 1
  137   129    43 1
  138   130    43 1
  139   131    39 1
  140   132    32 1
  141   133    31 1
  142   134    61 1
  143   135    56 1
  144   136    24 1
  145   137    24 1
  146   139   138 1
  147   140   139 1
  148   141   140 1
  149   142   140 1
  150   143   142 1
  151   144   138 1
  152   144   143 1
  153   145   144 1
  154   146   145 1
  155   147   146 1
  156   148   147 1
  157   149   148 1
  158   150   149 1
  159   151   150 1
  160   152   151 1
  161   153   152 1
  162   154   138 1
  163   155   138 1
  164   156   143 1
  165   157   147 1
  166   158   151 1
  167   160   159 1
  168   161   160 1
  169   162   161 1
  170   163   161 1
  171   164   163 1
  172   165   159 1
  173   165   164 1
  174   166   165 1
  175   167   166 1
  176   168   167 1
  177   169   168 1
  178   170   169 1
  179   171   170 1
  180   172   171 1
  181   173   172 1
  182   174   153 1
  183   174   173 1
  184   175   159 1
  185   176   159 1
  186   177   164 1
  187   178   168 1
  188   179   172 1
  189   180   179 1
  190   181   179 1
  191   182   179 1
  192   183   178 1
  193   184   178 1
  194   185   178 1
  195   186   177 1
  196   187   177 1
  197   188   177 1
  198   189   176 1
  199   190   176 1
  200   191   176 1
  201   192   175 1
  202   193   175 1
  203   194   175 1
  204   195   160 1
  205   196   160 1
  206   197   158 1
  207   198   158 1
  208   199   158 1
  209   200   157 1
  210   201   157 1
  211   202   157 1
  212   203   156 1
  213   204   156 1
  214   205   156 1
  215   206   155 1
  216   207   155 1
  217   208   155 1
  218   209   154 1
  219   210   154 1
  220   211   154 1
  221   212   141 1
  222   213   146 1
  223   214   145 1
  224   215   142 1
  225   216   142 1
  226   217   174 1
  227   218   173 1
  228   219   171 1
  229   220   170 1
  230   221   169 1
  231   222   140 1
  232   223   167 1
  233   224   166 1
  234   225   165 1
  235   226   163 1
  236   227   161 1
  237   228   139 1
  238   229   139 1
  239   230   153 1
  240   231   152 1
  241   232   150 1
  242   233   149 1
  243   234   148 1
  244   235   162 1
  245   65    153 1
  246   65    174 1
@<TRIPOS>SUBSTRUCTURE
      1 CLA               1 ****               0 ****  **** 
      2 LUT             138 ****               0 ****  **** 
