@<TRIPOS>MOLECULE
Cpptraj generated mol2 file.
  235   246     2     0     0
SMALL
USER_CHARGES


@<TRIPOS>ATOM
      1 CAA        79.3768   58.8901   33.5861 a2         1 CLA     -0.055900
      2 CAB        78.1271   61.6737   42.8985 c8         1 CLA     -0.148500
      3 CAC        71.8057   57.3326   41.1412 a2         1 CLA     -0.012600
      4 CAD        75.0782   56.6196   33.8607 ck         1 CLA      0.398800
      5 NA         77.9755   58.9286   36.9134 ns         1 CLA     -0.225500
      6 CBA        80.7686   58.8047   32.9132 a2         1 CLA     -0.135000
      7 CBB        78.9162   61.0673   43.7974 c0         1 CLA     -0.395200
      8 CBC        72.0975   55.9009   41.2458 a3         1 CLA     -0.037700
      9 CBD        76.6006   56.8956   33.8833 a1         1 CLA     -0.053900
     10 NB         77.4789   60.1141   39.5922 nm         1 CLA     -0.295700
     11 OBD        74.4078   56.3666   32.8819 o2         1 CLA     -0.494600
     12 CGA        81.2257   57.4466   32.3774 c4         1 CLA      0.827000
     13 CGD        77.4448   55.6530   33.5654 c4         1 CLA      0.655300
     14 ND         75.1846   57.8918   37.1158 nm         1 CLA     -0.291600
     15 CED        77.4200   53.2484   33.1883 a3         1 CLA      0.005400
     16 CHA        76.8111   57.5716   35.2147 cs         1 CLA     -0.123800
     17 CHB        79.5219   60.3354   38.2035 aa         1 CLA     -0.291900
     18 CHC        75.9533   60.1955   41.5136 aa         1 CLA     -0.090400
     19 CHD        73.2033   57.6592   38.3988 aa         1 CLA     -0.052000
     20 CMA        81.3529   58.4007   36.7491 a3         1 CLA     -0.230700
     21 CMB        80.4997   61.9922   40.6310 a3         1 CLA     -0.180800
     22 CMC        73.4389   59.1163   43.2558 a3         1 CLA     -0.134000
     23 CMD        72.0172   56.3702   35.6642 a3         1 CLA     -0.141100
     24 C1         81.9108   55.3083   33.1837 a2         1 CLA      0.023000
     25 C1A        77.9999   58.2350   35.7189 ac         1 CLA     -0.015100
     26 C1B        78.7529   60.6254   39.3564 cr         1 CLA      0.054700
     27 C1C        74.9342   59.3565   41.0239 cn         1 CLA     -0.005600
     28 C1D        73.8520   57.4619   37.1764 ap         1 CLA     -0.047300
     29 O1A        81.2472   57.0331   31.2043 o2         1 CLA     -0.610800
     30 O1D        78.6289   55.6708   33.3185 o2         1 CLA     -0.558200
     31 C2         82.6343   54.5979   34.3363 c8         1 CLA     -0.325100
     32 C2A        79.3985   58.2955   35.0373 a1         1 CLA      0.098600
     33 C2B        79.1188   61.4087   40.5106 cb         1 CLA      0.088500
     34 C2C        73.7710   58.8396   41.8172 cb         1 CLA      0.053700
     35 C2D        73.4321   56.8948   35.9507 cb         1 CLA      0.058900
     36 O2A        81.7212   56.7003   33.5283 o1         1 CLA     -0.437200
     37 O2D        76.7174   54.4944   33.4763 o1         1 CLA     -0.357600
     38 C3         83.6060   53.6919   34.1894 c5         1 CLA      0.031200
     39 C3A        80.2690   59.1235   36.0375 a1         1 CLA      0.166800
     40 C3B        78.1427   61.3504   41.4548 cb         1 CLA      0.035000
     41 C3C        72.9992   58.1576   40.8774 cb         1 CLA     -0.089900
     42 C3D        74.5857   56.9043   35.1743 cb         1 CLA     -0.035900
     43 C4         83.3385   52.2108   34.2544 a3         1 CLA     -0.053300
     44 C4A        79.1927   59.5413   37.0986 ac         1 CLA      0.001800
     45 C4B        77.1039   60.5157   40.8568 cn         1 CLA     -0.020900
     46 C4C        73.6718   58.2218   39.6453 cr         1 CLA     -0.044400
     47 C4D        75.5780   57.5285   35.8569 c6         1 CLA     -0.046000
     48 C5         84.9630   54.0808   33.7177 a2         1 CLA     -0.070400
     49 C6         85.3341   55.5193   34.1920 a2         1 CLA      0.043900
     50 C7         85.5242   55.5581   35.7217 a2         1 CLA     -0.150000
     51 C8         85.4159   57.0469   36.4212 a1         1 CLA      0.064200
     52 C9         86.3575   57.9336   35.6856 a3         1 CLA     -0.259300
     53 C10        85.7339   57.0254   37.9647 a2         1 CLA     -0.071900
     54 C11        84.9485   57.9506   38.8954 a2         1 CLA      0.014500
     55 C12        85.2544   57.6941   40.4263 a2         1 CLA     -0.112100
     56 C13        85.0394   58.8975   41.3922 a1         1 CLA      0.089200
     57 C14        86.2857   59.7755   41.4564 a3         1 CLA     -0.239100
     58 C15        84.6455   58.4594   42.7820 a2         1 CLA     -0.102200
     59 C16        83.1560   58.0859   43.0017 a2         1 CLA      0.023900
     60 C17        82.8461   57.5766   44.3879 a2         1 CLA     -0.105700
     61 C18        83.5729   56.3063   44.9269 a1         1 CLA      0.206800
     62 C19        83.2915   56.0275   46.3522 a3         1 CLA     -0.280100
     63 C20        83.0098   55.0187   44.2172 a3         1 CLA     -0.280100
     64 NC         74.7909   58.9484   39.7488 nx         1 CLA     -0.309200
     65 MG         76.2901   59.1029   38.2795 mg         1 CLA      0.895000
     66 HMD3       72.0512   55.5703   34.9442 dc         1 CLA      0.064300
     67 HMD2       71.5209   55.8562   36.5243 dc         1 CLA      0.064300
     68 HMD1       71.4399   57.1109   35.2146 dc         1 CLA      0.064300
     69 HMC3       73.8179   60.0081   43.6080 dc         1 CLA      0.052100
     70 HMC2       72.3476   59.2509   43.4909 dc         1 CLA      0.052100
     71 HMC1       73.8583   58.2558   43.8417 dc         1 CLA      0.052100
     72 HMB3       81.1796   61.3728   41.1247 dc         1 CLA      0.063600
     73 HMB2       80.8520   62.2777   39.6361 dc         1 CLA      0.063600
     74 HMB1       80.4177   62.8619   41.2594 dc         1 CLA      0.063600
     75 HMA3       80.9152   57.7216   37.4615 dc         1 CLA      0.058300
     76 HMA2       82.0626   57.9487   36.0345 dc         1 CLA      0.058300
     77 HMA1       81.9329   59.1665   37.2935 dc         1 CLA      0.058300
     78 HED3       77.6136   53.2224   32.1249 dc         1 CLA      0.079300
     79 HED2       78.4378   53.2031   33.6032 dc         1 CLA      0.079300
     80 HED1       76.9212   52.2418   33.3997 dc         1 CLA      0.079300
     81 HBC3       72.8750   55.7702   42.0641 dc         1 CLA      0.016300
     82 HBC2       71.1390   55.4439   41.5407 dc         1 CLA      0.016300
     83 HBC1       72.4912   55.5632   40.3820 dc         1 CLA      0.016300
     84 HBB2       78.9782   61.3596   44.8941 da         1 CLA      0.183000
     85 HBB1       79.5444   60.2278   43.4221 da         1 CLA      0.183000
     86 HBA2       80.8048   59.4517   32.0495 dc         1 CLA      0.029400
     87 HBA1       81.5291   59.2308   33.5755 dc         1 CLA      0.029400
     88 HAC2       71.3360   57.6723   42.0856 dc         1 CLA      0.029300
     89 HAC1       71.2004   57.4120   40.2388 dc         1 CLA      0.029300
     90 HAA2       78.8218   58.3017   32.9555 dc         1 CLA      0.028700
     91 HAA1       79.0142   59.9000   33.5892 dc         1 CLA      0.028700
     92 H203       83.5127   54.1487   44.5948 dc         1 CLA      0.065600
     93 H202       81.9753   54.9183   44.4927 dc         1 CLA      0.065600
     94 H201       83.0130   55.1276   43.0853 dc         1 CLA      0.065600
     95 H193       83.7014   55.0185   46.6166 dc         1 CLA      0.065600
     96 H192       83.7065   56.7748   46.9867 dc         1 CLA      0.065600
     97 H191       82.1954   56.1419   46.4443 dc         1 CLA      0.065600
     98 H172       82.8327   58.3937   45.0649 dc         1 CLA      0.027600
     99 H171       81.8262   57.2993   44.3139 dc         1 CLA      0.027600
    100 H162       82.5951   59.0378   42.9250 dc         1 CLA      0.002900
    101 H161       82.7857   57.3762   42.2918 dc         1 CLA      0.002900
    102 H152       85.3560   57.6040   43.0460 dc         1 CLA      0.029100
    103 H151       84.7633   59.3238   43.4281 dc         1 CLA      0.029100
    104 H143       86.4534   59.9867   40.4588 dc         1 CLA      0.063600
    105 H142       86.0756   60.6995   42.0528 dc         1 CLA      0.063600
    106 H141       87.1775   59.3093   41.7607 dc         1 CLA      0.063600
    107 H122       84.6892   56.8445   40.7754 dc         1 CLA      0.032500
    108 H121       86.2339   57.3284   40.5863 dc         1 CLA      0.032500
    109 H112       85.4014   58.9524   38.7084 dc         1 CLA      0.006600
    110 H111       83.8653   57.8383   38.7924 dc         1 CLA      0.006600
    111 H102       85.6993   55.9938   38.3282 dc         1 CLA      0.024100
    112 H101       86.8067   57.2175   38.0732 dc         1 CLA      0.024100
    113 HHD        72.2295   57.2054   38.4937 da         1 CLA      0.174300
    114 HHC        75.8642   60.4319   42.5994 da         1 CLA      0.136800
    115 HHB        80.4898   60.9030   38.1727 da         1 CLA      0.138300
    116 HBD        76.7849   57.6298   33.0677 dc         1 CLA      0.107700
    117 HAB        77.5792   62.5019   43.2202 da         1 CLA      0.155200
    118 H93        85.9244   58.0676   34.6023 dc         1 CLA      0.069500
    119 H92        86.4044   58.9332   36.2043 dc         1 CLA      0.069500
    120 H91        87.3705   57.5941   35.7350 dc         1 CLA      0.069500
    121 H8         84.3678   57.4838   36.2581 dc         1 CLA      0.029300
    122 H72        84.8903   54.9022   36.2410 dc         1 CLA      0.044400
    123 H71        86.5183   55.1592   35.9547 dc         1 CLA      0.044400
    124 H62        86.2088   55.9747   33.6531 dc         1 CLA      0.015600
    125 H61        84.5563   56.2399   33.8397 dc         1 CLA      0.015600
    126 H52        85.6891   53.3230   34.1277 dc         1 CLA      0.033200
    127 H51        84.9888   54.1566   32.6337 dc         1 CLA      0.033200
    128 H43        83.7230   51.7346   33.3542 dc         1 CLA      0.037000
    129 H42        83.7419   51.8746   35.2692 dc         1 CLA      0.037000
    130 H41        82.2721   52.0191   34.2519 dc         1 CLA      0.037000
    131 H3A        80.6846   60.0403   35.5209 dc         1 CLA      0.041100
    132 H2A        79.8176   57.3409   34.9087 dc         1 CLA      0.083100
    133 H2         82.5253   54.9912   35.3638 da         1 CLA      0.180900
    134 H18        84.6131   56.3221   44.8658 dc         1 CLA     -0.003900
    135 H13        84.1670   59.5090   41.0612 dc         1 CLA      0.019700
    136 H12        80.8756   54.9557   33.0759 dc         1 CLA      0.120400
    137 H11        82.4051   55.1506   32.1731 dc         1 CLA      0.120400
    138 C1         69.3388   61.2784   49.0471 Z1         2 LUT      0.509236
    139 C2         69.0232   61.7605   50.3917 Z2         2 LUT     -0.434695
    140 C3         67.6211   62.1652   50.6868 Z3         2 LUT      0.437453
    141 O3         67.5137   62.6840   51.9996 S1         2 LUT     -0.547129
    142 C4         67.1851   63.2329   49.6563 Z4         2 LUT     -0.468603
    143 C5         67.6191   62.9306   48.2512 Z5         2 LUT      0.279246
    144 C6         68.5336   61.9228   47.9223 Z6         2 LUT     -0.305473
    145 C7         69.0918   61.7803   46.5809 Z7         2 LUT      0.069402
    146 C8         69.9113   62.5854   45.8710 Z8         2 LUT     -0.191631
    147 C9         70.5537   62.3982   44.5747 Z9         2 LUT      0.196698
    148 C10        71.6237   63.1644   44.1624 Y1         2 LUT     -0.208611
    149 C11        72.4118   63.0217   42.9680 Y2         2 LUT      0.030784
    150 C12        73.6123   63.6628   42.8616 Y3         2 LUT     -0.220316
    151 C13        74.5343   63.5229   41.7513 Y4         2 LUT      0.215937
    152 C14        75.6738   64.2478   41.8029 Y5         2 LUT     -0.185793
    153 C15        76.7532   64.2904   40.9026 Y6         2 LUT     -0.057835
    154 C16        68.8925   59.8138   49.1497 Y7         2 LUT     -0.405615
    155 C17        70.8725   61.0892   48.8702 Y7         2 LUT     -0.405615
    156 C18        67.1946   64.0113   47.2445 Y9         2 LUT     -0.369639
    157 C19        70.0580   61.2254   43.7852 W1         2 LUT     -0.333362
    158 C20        74.0843   63.0234   40.4362 W2         2 LUT     -0.323439
    159 C21        87.4449   65.7270   34.0492 Z1         2 LUT      0.406104
    160 C22        88.0439   65.2638   32.7241 Z2         2 LUT     -0.404965
    161 C23        88.3395   66.4232   31.8156 Z3         2 LUT      0.391255
    162 O23        89.0527   65.9033   30.6633 S1         2 LUT     -0.528210
    163 C24        87.0453   67.1701   31.5508 W6         2 LUT     -0.258361
    164 C25        85.9589   67.1910   32.3809 Z5         2 LUT      0.133546
    165 C26        85.9551   66.3686   33.7444 W8         2 LUT     -0.147008
    166 C27        85.3330   67.1068   34.8711 Z7         2 LUT      0.023843
    167 C28        84.3940   66.5422   35.6577 Z8         2 LUT     -0.216987
    168 C29        84.1580   66.6782   37.0663 Z9         2 LUT      0.206524
    169 C30        82.9277   66.1459   37.5525 Y1         2 LUT     -0.215556
    170 C31        82.2875   66.2148   38.7898 Y2         2 LUT      0.025142
    171 C32        80.9788   65.7539   38.9107 Y3         2 LUT     -0.212209
    172 C33        80.1868   65.8308   40.1640 Y4         2 LUT      0.240937
    173 C34        78.9123   65.2014   40.1504 Y5         2 LUT     -0.218862
    174 C35        77.8926   65.0594   41.0476 Y6         2 LUT     -0.023547
    175 C36        88.3884   66.6651   34.8912 Y7         2 LUT     -0.393485
    176 C37        87.4703   64.5223   34.9164 Y7         2 LUT     -0.393485
    177 C38        84.7585   67.9973   31.9661 Y9         2 LUT     -0.387526
    178 C39        84.8655   67.7097   37.9412 W1         2 LUT     -0.322618
    179 C40        80.6248   66.7602   41.3219 W2         2 LUT     -0.358472
    180 H403       80.3125   66.5570   42.2970 R7         2 LUT      0.097720
    181 H402       81.6998   66.9060   41.3385 R7         2 LUT      0.097720
    182 H401       80.1097   67.7392   41.1396 R7         2 LUT      0.097720
    183 H393       84.2831   68.2855   38.6230 R4         2 LUT      0.082505
    184 H392       85.4677   67.0873   38.5807 R4         2 LUT      0.082505
    185 H391       85.4751   68.4201   37.4483 R4         2 LUT      0.082505
    186 H383       84.3671   68.4505   32.8614 R1         2 LUT      0.104030
    187 H382       84.9709   68.7557   31.1738 R1         2 LUT      0.104030
    188 H381       83.9371   67.3236   31.6194 R1         2 LUT      0.104030
    189 H373       88.5061   64.2099   35.1182 T4         2 LUT      0.089537
    190 H372       86.8483   64.6966   35.8459 T4         2 LUT      0.089537
    191 H371       87.0100   63.7545   34.3303 T4         2 LUT      0.089537
    192 H363       88.1800   66.7747   36.0183 T4         2 LUT      0.089537
    193 H362       89.4563   66.2891   34.8550 T4         2 LUT      0.089537
    194 H361       88.2722   67.6665   34.4492 T4         2 LUT      0.089537
    195 H222       88.9469   64.6472   32.8122 U2         2 LUT      0.127376
    196 H221       87.3078   64.5613   32.2964 U2         2 LUT      0.127376
    197 H203       73.8087   61.9553   40.3372 R7         2 LUT      0.087068
    198 H202       73.0566   63.3607   40.2855 R7         2 LUT      0.087068
    199 H201       74.5718   63.3931   39.5263 R7         2 LUT      0.087068
    200 H193       70.8316   60.5698   43.4091 R4         2 LUT      0.089716
    201 H192       69.2196   60.5728   44.1042 R4         2 LUT      0.089716
    202 H191       69.6798   61.6537   42.8393 R4         2 LUT      0.089716
    203 H183       66.2421   64.4318   47.5787 R1         2 LUT      0.094572
    204 H182       67.9600   64.8104   47.1749 R1         2 LUT      0.094572
    205 H181       67.0163   63.5596   46.2331 R1         2 LUT      0.094572
    206 H173       71.2948   60.4872   49.6292 T4         2 LUT      0.093752
    207 H172       71.0815   60.5642   47.8827 T4         2 LUT      0.093752
    208 H171       71.2986   62.0329   48.8464 T4         2 LUT      0.093752
    209 H163       69.2005   59.3136   50.0983 T4         2 LUT      0.093752
    210 H162       67.8415   59.6982   49.1289 T4         2 LUT      0.093752
    211 H161       69.2679   59.2845   48.3046 T4         2 LUT      0.093752
    212 HO3        67.5866   61.9239   52.6579 Q1         2 LUT      0.300121
    213 H8         70.2212   63.4255   46.4739 U7         2 LUT      0.080784
    214 H7         68.8588   60.8194   46.2008 U6         2 LUT      0.042190
    215 H42        66.1022   63.2023   49.7303 U5         2 LUT      0.145166
    216 H41        67.6512   64.1722   50.0343 U5         2 LUT      0.145166
    217 H35        77.9251   65.6998   41.9090 T3         2 LUT      0.077919
    218 H34        78.6534   64.6191   39.2871 T2         2 LUT      0.073626
    219 H32        80.5663   65.0914   38.1067 T1         2 LUT      0.092510
    220 H31        82.8483   66.7436   39.5165 U9         2 LUT      0.070048
    221 H30        82.3661   65.5929   36.7779 U8         2 LUT      0.085442
    222 H3         66.9397   61.2582   50.4255 U3         2 LUT     -0.031596
    223 H28        83.6485   65.9725   35.0999 U7         2 LUT      0.084728
    224 H27        86.0039   67.8054   35.2684 U6         2 LUT      0.087291
    225 H26        85.4012   65.4216   33.5239 Q6         2 LUT      0.075325
    226 H24        87.0029   67.7679   30.6651 Q5         2 LUT      0.094482
    227 H23        89.1617   67.0047   32.2774 U3         2 LUT     -0.024869
    228 H22        69.4584   61.0463   51.1291 U2         2 LUT      0.127376
    229 H21        69.5766   62.7376   50.6354 U2         2 LUT      0.127376
    230 H15        76.6650   63.7812   39.9109 T3         2 LUT      0.093200
    231 H14        75.8682   64.9187   42.6465 T2         2 LUT      0.068865
    232 H12        73.8887   64.3501   43.7063 T1         2 LUT      0.095507
    233 H11        72.0052   62.3533   42.2371 U9         2 LUT      0.068930
    234 H10        71.9647   63.9156   44.8365 U8         2 LUT      0.083911
    235 H1         88.5012   65.5201   29.9872 Q1         2 LUT      0.297311
@<TRIPOS>BOND
    1     6     1 1
    2     7     2 1
    3     8     3 1
    4     9     4 1
    5    11     4 1
    6    12     6 1
    7    13     9 1
    8    16     9 1
    9    25     5 1
   10    25    16 1
   11    26    10 1
   12    26    17 1
   13    27    18 1
   14    28    14 1
   15    28    19 1
   16    29    12 1
   17    30    13 1
   18    31    24 1
   19    32     1 1
   20    32    25 1
   21    33    21 1
   22    33    26 1
   23    34    22 1
   24    34    27 1
   25    35    23 1
   26    35    28 1
   27    36    12 1
   28    36    24 1
   29    37    13 1
   30    37    15 1
   31    38    31 1
   32    39    20 1
   33    39    32 1
   34    40     2 1
   35    40    33 1
   36    41     3 1
   37    41    34 1
   38    42     4 1
   39    42    35 1
   40    43    38 1
   41    44     5 1
   42    44    17 1
   43    44    39 1
   44    45    10 1
   45    45    18 1
   46    45    40 1
   47    46    19 1
   48    46    41 1
   49    47    14 1
   50    47    16 1
   51    47    42 1
   52    48    38 1
   53    49    48 1
   54    50    49 1
   55    51    50 1
   56    52    51 1
   57    53    51 1
   58    54    53 1
   59    55    54 1
   60    56    55 1
   61    57    56 1
   62    58    56 1
   63    59    58 1
   64    60    59 1
   65    61    60 1
   66    62    61 1
   67    63    61 1
   68    64    27 1
   69    64    46 1
   70    65     5 1
   71    65    10 1
   72    65    64 1
   73    65    14 1
   74    66    23 1
   75    67    23 1
   76    68    23 1
   77    69    22 1
   78    70    22 1
   79    71    22 1
   80    72    21 1
   81    73    21 1
   82    74    21 1
   83    75    20 1
   84    76    20 1
   85    77    20 1
   86    78    15 1
   87    79    15 1
   88    80    15 1
   89    81     8 1
   90    82     8 1
   91    83     8 1
   92    84     7 1
   93    85     7 1
   94    86     6 1
   95    87     6 1
   96    88     3 1
   97    89     3 1
   98    90     1 1
   99    91     1 1
  100    92    63 1
  101    93    63 1
  102    94    63 1
  103    95    62 1
  104    96    62 1
  105    97    62 1
  106    98    60 1
  107    99    60 1
  108   100    59 1
  109   101    59 1
  110   102    58 1
  111   103    58 1
  112   104    57 1
  113   105    57 1
  114   106    57 1
  115   107    55 1
  116   108    55 1
  117   109    54 1
  118   110    54 1
  119   111    53 1
  120   112    53 1
  121   113    19 1
  122   114    18 1
  123   115    17 1
  124   116     9 1
  125   117     2 1
  126   118    52 1
  127   119    52 1
  128   120    52 1
  129   121    51 1
  130   122    50 1
  131   123    50 1
  132   124    49 1
  133   125    49 1
  134   126    48 1
  135   127    48 1
  136   128    43 1
  137   129    43 1
  138   130    43 1
  139   131    39 1
  140   132    32 1
  141   133    31 1
  142   134    61 1
  143   135    56 1
  144   136    24 1
  145   137    24 1
  146   139   138 1
  147   140   139 1
  148   141   140 1
  149   142   140 1
  150   143   142 1
  151   144   138 1
  152   144   143 1
  153   145   144 1
  154   146   145 1
  155   147   146 1
  156   148   147 1
  157   149   148 1
  158   150   149 1
  159   151   150 1
  160   152   151 1
  161   153   152 1
  162   154   138 1
  163   155   138 1
  164   156   143 1
  165   157   147 1
  166   158   151 1
  167   160   159 1
  168   161   160 1
  169   162   161 1
  170   163   161 1
  171   164   163 1
  172   165   159 1
  173   165   164 1
  174   166   165 1
  175   167   166 1
  176   168   167 1
  177   169   168 1
  178   170   169 1
  179   171   170 1
  180   172   171 1
  181   173   172 1
  182   174   153 1
  183   174   173 1
  184   175   159 1
  185   176   159 1
  186   177   164 1
  187   178   168 1
  188   179   172 1
  189   180   179 1
  190   181   179 1
  191   182   179 1
  192   183   178 1
  193   184   178 1
  194   185   178 1
  195   186   177 1
  196   187   177 1
  197   188   177 1
  198   189   176 1
  199   190   176 1
  200   191   176 1
  201   192   175 1
  202   193   175 1
  203   194   175 1
  204   195   160 1
  205   196   160 1
  206   197   158 1
  207   198   158 1
  208   199   158 1
  209   200   157 1
  210   201   157 1
  211   202   157 1
  212   203   156 1
  213   204   156 1
  214   205   156 1
  215   206   155 1
  216   207   155 1
  217   208   155 1
  218   209   154 1
  219   210   154 1
  220   211   154 1
  221   212   141 1
  222   213   146 1
  223   214   145 1
  224   215   142 1
  225   216   142 1
  226   217   174 1
  227   218   173 1
  228   219   171 1
  229   220   170 1
  230   221   169 1
  231   222   140 1
  232   223   167 1
  233   224   166 1
  234   225   165 1
  235   226   163 1
  236   227   161 1
  237   228   139 1
  238   229   139 1
  239   230   153 1
  240   231   152 1
  241   232   150 1
  242   233   149 1
  243   234   148 1
  244   235   162 1
  245   65    153 1
  246   65    174 1
@<TRIPOS>SUBSTRUCTURE
      1 CLA               1 ****               0 ****  **** 
      2 LUT             138 ****               0 ****  **** 
