@<TRIPOS>MOLECULE
Cpptraj generated mol2 file.
  235   246     2     0     0
SMALL
USER_CHARGES


@<TRIPOS>ATOM
      1 CAA        76.5956   57.8834   33.6389 a2         1 CLA     -0.055900
      2 CAB        77.1887   61.3101   42.5462 c8         1 CLA     -0.148500
      3 CAC        70.0343   57.5693   42.1012 a2         1 CLA     -0.012600
      4 CAD        72.6162   55.2911   34.9500 ck         1 CLA      0.398800
      5 NA         75.8717   58.2930   36.9107 ns         1 CLA     -0.225500
      6 CBA        77.7745   57.9016   32.6284 a2         1 CLA     -0.135000
      7 CBB        78.3534   61.0209   43.1531 c0         1 CLA     -0.395200
      8 CBC        70.1050   56.0476   42.1723 a3         1 CLA     -0.037700
      9 CBD        74.1500   55.6146   34.6698 a1         1 CLA     -0.053900
     10 NB         75.7930   59.7601   39.4140 nm         1 CLA     -0.295700
     11 OBD        71.9604   54.5660   34.2317 o2         1 CLA     -0.494600
     12 CGA        78.3337   56.5768   32.1519 c4         1 CLA      0.827000
     13 CGD        74.9800   54.3363   34.7493 c4         1 CLA      0.655300
     14 ND         73.0732   57.5388   37.5421 nm         1 CLA     -0.291600
     15 CED        74.8033   52.0854   35.4580 a3         1 CLA      0.005400
     16 CHA        74.4560   56.7479   35.6609 cs         1 CLA     -0.123800
     17 CHB        77.7321   59.5278   37.9055 aa         1 CLA     -0.291900
     18 CHC        74.5638   59.9708   41.5863 aa         1 CLA     -0.090400
     19 CHD        71.1903   57.3689   39.2457 aa         1 CLA     -0.052000
     20 CMA        79.1062   57.0751   36.3296 a3         1 CLA     -0.230700
     21 CMB        79.2019   61.4018   39.8616 a3         1 CLA     -0.180800
     22 CMC        72.4643   59.1393   43.7623 a3         1 CLA     -0.134000
     23 CMD        69.8420   55.6842   37.0160 a3         1 CLA     -0.141100
     24 C1         79.2389   54.4332   32.7453 a2         1 CLA      0.023000
     25 C1A        75.6456   57.4289   35.8480 ac         1 CLA     -0.015100
     26 C1B        77.0614   60.1101   38.9971 cr         1 CLA      0.054700
     27 C1C        73.3557   59.1957   41.3456 cn         1 CLA     -0.005600
     28 C1D        71.7858   57.1127   37.9955 ap         1 CLA     -0.047300
     29 O1A        78.3386   56.2038   31.0083 o2         1 CLA     -0.610800
     30 O1D        75.9640   54.0576   34.1021 o2         1 CLA     -0.558200
     31 C2         79.8802   53.8436   33.9684 c8         1 CLA     -0.325100
     32 C2A        76.8388   57.2869   34.9802 a1         1 CLA      0.098600
     33 C2B        77.7541   60.9253   40.0203 cb         1 CLA      0.088500
     34 C2C        72.2611   58.8730   42.2752 cb         1 CLA      0.053700
     35 C2D        71.1892   56.2830   37.0055 cb         1 CLA      0.058900
     36 O2A        78.9257   55.8052   33.1901 o1         1 CLA     -0.437200
     37 O2D        74.3447   53.4441   35.5812 o1         1 CLA     -0.357600
     38 C3         80.6607   52.7583   33.9369 c5         1 CLA      0.031200
     39 C3A        77.9643   58.0093   35.8273 a1         1 CLA      0.166800
     40 C3B        76.9389   60.9406   41.0848 cb         1 CLA      0.035000
     41 C3C        71.2402   58.2441   41.5443 cb         1 CLA     -0.089900
     42 C3D        72.2501   56.0290   36.0705 cb         1 CLA     -0.035900
     43 C4         80.1566   51.4614   34.4772 a3         1 CLA     -0.053300
     44 C4A        77.1739   58.6520   36.9974 ac         1 CLA      0.001800
     45 C4B        75.6467   60.2089   40.6913 cn         1 CLA     -0.020900
     46 C4C        71.8102   58.1464   40.2473 cr         1 CLA     -0.044400
     47 C4D        73.3411   56.8016   36.4164 c6         1 CLA     -0.046000
     48 C5         82.1879   52.8876   33.6694 a2         1 CLA     -0.070400
     49 C6         82.9393   54.1814   34.1235 a2         1 CLA      0.043900
     50 C7         82.8632   54.1759   35.6636 a2         1 CLA     -0.150000
     51 C8         83.6451   55.2884   36.3874 a1         1 CLA      0.064200
     52 C9         85.1463   55.3514   35.9286 a3         1 CLA     -0.259300
     53 C10        83.4871   55.0838   37.9371 a2         1 CLA     -0.071900
     54 C11        82.1421   55.3437   38.6600 a2         1 CLA      0.014500
     55 C12        82.3805   55.8865   40.0450 a2         1 CLA     -0.112100
     56 C13        81.1239   56.0919   40.7997 a1         1 CLA      0.089200
     57 C14        80.2173   57.2578   40.2734 a3         1 CLA     -0.239100
     58 C15        81.3420   56.2095   42.3480 a2         1 CLA     -0.102200
     59 C16        82.0924   57.4482   42.8241 a2         1 CLA      0.023900
     60 C17        82.4544   57.4818   44.3180 a2         1 CLA     -0.105700
     61 C18        83.1055   58.7021   44.9680 a1         1 CLA      0.206800
     62 C19        84.6101   58.8826   44.5716 a3         1 CLA     -0.280100
     63 C20        82.2401   60.0070   45.0340 a3         1 CLA     -0.280100
     64 NC         73.0451   58.7365   40.1373 nx         1 CLA     -0.309200
     65 MG         74.3525   58.7849   38.3882 mg         1 CLA      0.895000
     66 HMD3       69.8272   54.6562   36.5754 dc         1 CLA      0.064300
     67 HMD2       69.4721   55.5737   38.0183 dc         1 CLA      0.064300
     68 HMD1       69.1062   56.3188   36.4756 dc         1 CLA      0.064300
     69 HMC3       71.5875   58.9898   44.3480 dc         1 CLA      0.052100
     70 HMC2       73.2578   58.5877   44.2716 dc         1 CLA      0.052100
     71 HMC1       72.6751   60.2274   43.8245 dc         1 CLA      0.052100
     72 HMB3       79.8548   60.4984   39.9087 dc         1 CLA      0.063600
     73 HMB2       79.2491   61.6825   38.7943 dc         1 CLA      0.063600
     74 HMB1       79.6635   62.1505   40.5268 dc         1 CLA      0.063600
     75 HMA3       79.8023   56.9903   35.5543 dc         1 CLA      0.058300
     76 HMA2       79.6278   57.5813   37.1583 dc         1 CLA      0.058300
     77 HMA1       78.6401   56.1389   36.6519 dc         1 CLA      0.058300
     78 HED3       74.3322   51.5507   34.6542 dc         1 CLA      0.079300
     79 HED2       75.8503   51.9920   35.3636 dc         1 CLA      0.079300
     80 HED1       74.5041   51.6344   36.3967 dc         1 CLA      0.079300
     81 HBC3       70.2257   55.5507   41.2596 dc         1 CLA      0.016300
     82 HBC2       71.0298   55.8209   42.7549 dc         1 CLA      0.016300
     83 HBC1       69.3046   55.5514   42.7236 dc         1 CLA      0.016300
     84 HBB2       78.5928   61.3825   44.1870 da         1 CLA      0.183000
     85 HBB1       79.2180   60.6968   42.6399 da         1 CLA      0.183000
     86 HBA2       77.5581   58.5494   31.7666 dc         1 CLA      0.029400
     87 HBA1       78.6842   58.3772   33.0906 dc         1 CLA      0.029400
     88 HAC2       69.7439   58.0437   43.0438 dc         1 CLA      0.029300
     89 HAC1       69.1814   57.6897   41.4486 dc         1 CLA      0.029300
     90 HAA2       75.7003   57.5677   33.2047 dc         1 CLA      0.028700
     91 HAA1       76.5089   58.9581   33.8866 dc         1 CLA      0.028700
     92 H203       82.6279   60.6341   45.8074 dc         1 CLA      0.065600
     93 H202       82.3993   60.5794   44.1453 dc         1 CLA      0.065600
     94 H201       81.1862   59.9339   45.2169 dc         1 CLA      0.065600
     95 H193       84.8131   59.2615   43.4860 dc         1 CLA      0.065600
     96 H192       84.8562   59.7227   45.2135 dc         1 CLA      0.065600
     97 H191       85.2878   58.0303   44.8458 dc         1 CLA      0.065600
     98 H172       81.5107   57.1696   44.8374 dc         1 CLA      0.027600
     99 H171       83.1704   56.7254   44.5020 dc         1 CLA      0.027600
    100 H162       83.0042   57.5418   42.1588 dc         1 CLA      0.002900
    101 H161       81.4588   58.3035   42.8072 dc         1 CLA      0.002900
    102 H152       80.3714   56.1968   42.8969 dc         1 CLA      0.029100
    103 H151       81.9549   55.3318   42.6962 dc         1 CLA      0.029100
    104 H143       79.4627   57.4497   41.0466 dc         1 CLA      0.063600
    105 H142       80.8060   58.1574   40.3371 dc         1 CLA      0.063600
    106 H141       79.6626   57.1608   39.4203 dc         1 CLA      0.063600
    107 H122       83.0485   55.1250   40.5966 dc         1 CLA      0.032500
    108 H121       82.8782   56.8307   39.9360 dc         1 CLA      0.032500
    109 H112       81.5207   56.0220   38.2126 dc         1 CLA      0.006600
    110 H111       81.5535   54.3949   38.6889 dc         1 CLA      0.006600
    111 H102       83.8809   54.1598   38.3102 dc         1 CLA      0.024100
    112 H101       84.1303   55.8886   38.2972 dc         1 CLA      0.024100
    113 HHD        70.2782   56.8731   39.5598 da         1 CLA      0.174300
    114 HHC        74.8284   60.1856   42.5918 da         1 CLA      0.136800
    115 HHB        78.8068   59.5990   37.7440 da         1 CLA      0.138300
    116 HBD        74.1983   55.8325   33.5869 dc         1 CLA      0.107700
    117 HAB        76.4328   61.7448   43.1668 da         1 CLA      0.155200
    118 H93        85.2245   55.9054   34.9917 dc         1 CLA      0.069500
    119 H92        85.7009   55.8725   36.7046 dc         1 CLA      0.069500
    120 H91        85.5740   54.3836   35.8515 dc         1 CLA      0.069500
    121 H8         83.1980   56.3483   36.1946 dc         1 CLA      0.029300
    122 H72        81.8030   54.1138   35.9959 dc         1 CLA      0.044400
    123 H71        83.3051   53.2281   36.0192 dc         1 CLA      0.044400
    124 H62        83.9790   54.0180   33.7279 dc         1 CLA      0.015600
    125 H61        82.4845   55.1175   33.8052 dc         1 CLA      0.015600
    126 H52        82.7906   52.0501   34.1464 dc         1 CLA      0.033200
    127 H51        82.2227   52.7561   32.5185 dc         1 CLA      0.033200
    128 H43        80.3277   51.3119   35.4771 dc         1 CLA      0.037000
    129 H42        79.1137   51.3818   34.3244 dc         1 CLA      0.037000
    130 H41        80.5173   50.6197   33.8557 dc         1 CLA      0.037000
    131 H3A        78.3810   58.7812   35.2109 dc         1 CLA      0.041100
    132 H2A        77.0527   56.1737   34.8694 dc         1 CLA      0.083100
    133 H2         79.8901   54.4038   34.9184 da         1 CLA      0.180900
    134 H18        83.0525   58.4320   46.0093 dc         1 CLA     -0.003900
    135 H13        80.5152   55.2426   40.7363 dc         1 CLA      0.019700
    136 H12        78.1984   53.8982   32.6033 dc         1 CLA      0.120400
    137 H11        79.9390   54.4466   31.8718 dc         1 CLA      0.120400
    138 C1         67.1832   61.6622   50.0468 Z1         2 LUT      0.509236
    139 C2         67.3383   63.0494   50.8179 Z2         2 LUT     -0.434695
    140 C3         66.0746   63.7709   50.9316 Z3         2 LUT      0.437453
    141 O3         66.4253   65.1042   51.2946 S1         2 LUT     -0.547129
    142 C4         65.2399   63.7088   49.7084 Z4         2 LUT     -0.468603
    143 C5         65.8900   63.0470   48.4862 Z5         2 LUT      0.279246
    144 C6         66.7257   62.0148   48.5919 Z6         2 LUT     -0.305473
    145 C7         67.5807   61.3944   47.5045 Z7         2 LUT      0.069402
    146 C8         68.4340   61.9416   46.5717 Z8         2 LUT     -0.191631
    147 C9         69.0130   61.3752   45.3641 Z9         2 LUT      0.196698
    148 C10        69.8843   62.2298   44.6773 Y1         2 LUT     -0.208611
    149 C11        70.6143   62.1668   43.4112 Y2         2 LUT      0.030784
    150 C12        71.6051   63.0397   43.0301 Y3         2 LUT     -0.220316
    151 C13        72.4128   62.9751   41.8332 Y4         2 LUT      0.215937
    152 C14        73.6057   63.6357   41.7235 Y5         2 LUT     -0.185793
    153 C15        74.5838   63.5288   40.6546 Y6         2 LUT     -0.057835
    154 C16        66.0091   60.9570   50.6953 Y7         2 LUT     -0.405615
    155 C17        68.4512   60.9208   50.2592 Y7         2 LUT     -0.405615
    156 C18        65.6258   63.9197   47.2949 Y9         2 LUT     -0.369639
    157 C19        68.6237   59.9628   44.9333 W1         2 LUT     -0.333362
    158 C20        71.7399   62.1831   40.7640 W2         2 LUT     -0.323439
    159 C21        85.7636   64.5044   34.6433 Z1         2 LUT      0.406104
    160 C22        86.4221   63.8241   33.4220 Z2         2 LUT     -0.404965
    161 C23        86.7250   64.7675   32.3110 Z3         2 LUT      0.391255
    162 O23        87.4397   64.0388   31.3060 S1         2 LUT     -0.528210
    163 C24        85.5223   65.6024   31.9856 W6         2 LUT     -0.258361
    164 C25        84.5107   65.8574   32.8134 Z5         2 LUT      0.133546
    165 C26        84.3982   65.1157   34.0936 W8         2 LUT     -0.147008
    166 C27        83.6212   65.8703   35.1859 Z7         2 LUT      0.023843
    167 C28        82.7090   65.2208   36.0103 Z8         2 LUT     -0.216987
    168 C29        82.2285   65.6170   37.3503 Z9         2 LUT      0.206524
    169 C30        81.1298   65.0100   37.7841 Y1         2 LUT     -0.215556
    170 C31        80.3280   65.2104   38.9790 Y2         2 LUT      0.025142
    171 C32        79.0374   64.7140   39.0647 Y3         2 LUT     -0.212209
    172 C33        78.0063   64.8693   40.1388 Y4         2 LUT      0.240937
    173 C34        76.8026   64.2732   39.8905 Y5         2 LUT     -0.218862
    174 C35        75.6875   64.2856   40.8247 Y6         2 LUT     -0.023547
    175 C36        86.6651   65.6690   35.1688 Y7         2 LUT     -0.393485
    176 C37        85.6373   63.4689   35.7047 Y7         2 LUT     -0.393485
    177 C38        83.3315   66.7751   32.3691 Y9         2 LUT     -0.387526
    178 C39        83.0111   66.6326   38.1530 W1         2 LUT     -0.322618
    179 C40        78.3147   65.7606   41.3595 W2         2 LUT     -0.358472
    180 H403       78.3336   66.8215   41.1254 R7         2 LUT      0.097720
    181 H402       77.6800   65.5222   42.2360 R7         2 LUT      0.097720
    182 H401       79.3596   65.6540   41.7074 R7         2 LUT      0.097720
    183 H393       82.4349   66.9368   39.0317 R4         2 LUT      0.082505
    184 H392       83.9852   66.2594   38.3568 R4         2 LUT      0.082505
    185 H391       83.1021   67.5210   37.4566 R4         2 LUT      0.082505
    186 H383       83.1060   67.4624   33.1324 R1         2 LUT      0.104030
    187 H382       83.6271   67.4196   31.5650 R1         2 LUT      0.104030
    188 H381       82.4647   66.0997   32.1149 R1         2 LUT      0.104030
    189 H373       85.0307   62.6469   35.3309 T4         2 LUT      0.089537
    190 H372       86.6001   63.1719   36.0640 T4         2 LUT      0.089537
    191 H371       85.1179   63.9115   36.5006 T4         2 LUT      0.089537
    192 H363       87.6944   65.3443   35.4397 T4         2 LUT      0.089537
    193 H362       86.8172   66.4585   34.4111 T4         2 LUT      0.089537
    194 H361       86.2611   66.2033   36.0081 T4         2 LUT      0.089537
    195 H222       87.3947   63.3903   33.7570 U2         2 LUT      0.127376
    196 H221       85.8010   63.0412   33.0655 U2         2 LUT      0.127376
    197 H203       70.6438   62.3566   40.8697 R7         2 LUT      0.087068
    198 H202       72.1206   62.5178   39.8139 R7         2 LUT      0.087068
    199 H201       72.0248   61.1526   40.8712 R7         2 LUT      0.087068
    200 H193       69.3860   59.1920   45.0571 R4         2 LUT      0.089716
    201 H192       67.6361   59.6809   45.2327 R4         2 LUT      0.089716
    202 H191       68.4786   60.0416   43.8382 R4         2 LUT      0.089716
    203 H183       64.6145   64.2505   47.3290 R1         2 LUT      0.094572
    204 H182       66.2800   64.7447   47.2982 R1         2 LUT      0.094572
    205 H181       65.8002   63.3516   46.4027 R1         2 LUT      0.094572
    206 H173       69.2758   61.5590   49.9893 T4         2 LUT      0.093752
    207 H172       68.5828   60.7929   51.3169 T4         2 LUT      0.093752
    208 H171       68.5323   59.9492   49.8130 T4         2 LUT      0.093752
    209 H163       66.2395   60.7258   51.7324 T4         2 LUT      0.093752
    210 H162       65.1161   61.5573   50.7227 T4         2 LUT      0.093752
    211 H161       65.7330   60.0518   50.1622 T4         2 LUT      0.093752
    212 HO3        65.7825   65.4355   51.9894 Q1         2 LUT      0.300121
    213 H8         68.4606   63.0449   46.5986 U7         2 LUT      0.080784
    214 H7         67.4076   60.2874   47.4833 U6         2 LUT      0.042190
    215 H42        64.3627   63.1276   49.8588 U5         2 LUT      0.145166
    216 H41        64.8864   64.6803   49.5201 U5         2 LUT      0.145166
    217 H35        75.7274   64.8431   41.7306 T3         2 LUT      0.077919
    218 H34        76.6248   63.7125   39.0291 T2         2 LUT      0.073626
    219 H32        78.6268   64.1207   38.2198 T1         2 LUT      0.092510
    220 H31        80.6946   65.8533   39.7664 U9         2 LUT      0.070048
    221 H30        80.7045   64.2494   37.1227 U8         2 LUT      0.085442
    222 H3         65.5278   63.3112   51.7256 U3         2 LUT     -0.031596
    223 H28        82.3906   64.2157   35.7794 U7         2 LUT      0.084728
    224 H27        83.8255   66.9420   35.4512 U6         2 LUT      0.087291
    225 H26        83.6258   64.3207   33.8404 Q6         2 LUT      0.075325
    226 H24        85.5329   66.0357   30.9131 Q5         2 LUT      0.094482
    227 H23        87.4280   65.4950   32.6043 U3         2 LUT     -0.024869
    228 H22        67.7823   62.9072   51.8029 U2         2 LUT      0.127376
    229 H21        67.9357   63.6752   50.1648 U2         2 LUT      0.127376
    230 H15        74.4476   62.8756   39.7999 T3         2 LUT      0.093200
    231 H14        73.8832   64.2567   42.5140 T2         2 LUT      0.068865
    232 H12        71.9117   63.7786   43.7922 T1         2 LUT      0.095507
    233 H11        70.3459   61.2911   42.8125 U9         2 LUT      0.068930
    234 H10        70.1188   63.1800   45.0886 U8         2 LUT      0.083911
    235 H1         86.8454   63.6882   30.6218 Q1         2 LUT      0.297311
@<TRIPOS>BOND
    1     6     1 1
    2     7     2 1
    3     8     3 1
    4     9     4 1
    5    11     4 1
    6    12     6 1
    7    13     9 1
    8    16     9 1
    9    25     5 1
   10    25    16 1
   11    26    10 1
   12    26    17 1
   13    27    18 1
   14    28    14 1
   15    28    19 1
   16    29    12 1
   17    30    13 1
   18    31    24 1
   19    32     1 1
   20    32    25 1
   21    33    21 1
   22    33    26 1
   23    34    22 1
   24    34    27 1
   25    35    23 1
   26    35    28 1
   27    36    12 1
   28    36    24 1
   29    37    13 1
   30    37    15 1
   31    38    31 1
   32    39    20 1
   33    39    32 1
   34    40     2 1
   35    40    33 1
   36    41     3 1
   37    41    34 1
   38    42     4 1
   39    42    35 1
   40    43    38 1
   41    44     5 1
   42    44    17 1
   43    44    39 1
   44    45    10 1
   45    45    18 1
   46    45    40 1
   47    46    19 1
   48    46    41 1
   49    47    14 1
   50    47    16 1
   51    47    42 1
   52    48    38 1
   53    49    48 1
   54    50    49 1
   55    51    50 1
   56    52    51 1
   57    53    51 1
   58    54    53 1
   59    55    54 1
   60    56    55 1
   61    57    56 1
   62    58    56 1
   63    59    58 1
   64    60    59 1
   65    61    60 1
   66    62    61 1
   67    63    61 1
   68    64    27 1
   69    64    46 1
   70    65     5 1
   71    65    10 1
   72    65    64 1
   73    65    14 1
   74    66    23 1
   75    67    23 1
   76    68    23 1
   77    69    22 1
   78    70    22 1
   79    71    22 1
   80    72    21 1
   81    73    21 1
   82    74    21 1
   83    75    20 1
   84    76    20 1
   85    77    20 1
   86    78    15 1
   87    79    15 1
   88    80    15 1
   89    81     8 1
   90    82     8 1
   91    83     8 1
   92    84     7 1
   93    85     7 1
   94    86     6 1
   95    87     6 1
   96    88     3 1
   97    89     3 1
   98    90     1 1
   99    91     1 1
  100    92    63 1
  101    93    63 1
  102    94    63 1
  103    95    62 1
  104    96    62 1
  105    97    62 1
  106    98    60 1
  107    99    60 1
  108   100    59 1
  109   101    59 1
  110   102    58 1
  111   103    58 1
  112   104    57 1
  113   105    57 1
  114   106    57 1
  115   107    55 1
  116   108    55 1
  117   109    54 1
  118   110    54 1
  119   111    53 1
  120   112    53 1
  121   113    19 1
  122   114    18 1
  123   115    17 1
  124   116     9 1
  125   117     2 1
  126   118    52 1
  127   119    52 1
  128   120    52 1
  129   121    51 1
  130   122    50 1
  131   123    50 1
  132   124    49 1
  133   125    49 1
  134   126    48 1
  135   127    48 1
  136   128    43 1
  137   129    43 1
  138   130    43 1
  139   131    39 1
  140   132    32 1
  141   133    31 1
  142   134    61 1
  143   135    56 1
  144   136    24 1
  145   137    24 1
  146   139   138 1
  147   140   139 1
  148   141   140 1
  149   142   140 1
  150   143   142 1
  151   144   138 1
  152   144   143 1
  153   145   144 1
  154   146   145 1
  155   147   146 1
  156   148   147 1
  157   149   148 1
  158   150   149 1
  159   151   150 1
  160   152   151 1
  161   153   152 1
  162   154   138 1
  163   155   138 1
  164   156   143 1
  165   157   147 1
  166   158   151 1
  167   160   159 1
  168   161   160 1
  169   162   161 1
  170   163   161 1
  171   164   163 1
  172   165   159 1
  173   165   164 1
  174   166   165 1
  175   167   166 1
  176   168   167 1
  177   169   168 1
  178   170   169 1
  179   171   170 1
  180   172   171 1
  181   173   172 1
  182   174   153 1
  183   174   173 1
  184   175   159 1
  185   176   159 1
  186   177   164 1
  187   178   168 1
  188   179   172 1
  189   180   179 1
  190   181   179 1
  191   182   179 1
  192   183   178 1
  193   184   178 1
  194   185   178 1
  195   186   177 1
  196   187   177 1
  197   188   177 1
  198   189   176 1
  199   190   176 1
  200   191   176 1
  201   192   175 1
  202   193   175 1
  203   194   175 1
  204   195   160 1
  205   196   160 1
  206   197   158 1
  207   198   158 1
  208   199   158 1
  209   200   157 1
  210   201   157 1
  211   202   157 1
  212   203   156 1
  213   204   156 1
  214   205   156 1
  215   206   155 1
  216   207   155 1
  217   208   155 1
  218   209   154 1
  219   210   154 1
  220   211   154 1
  221   212   141 1
  222   213   146 1
  223   214   145 1
  224   215   142 1
  225   216   142 1
  226   217   174 1
  227   218   173 1
  228   219   171 1
  229   220   170 1
  230   221   169 1
  231   222   140 1
  232   223   167 1
  233   224   166 1
  234   225   165 1
  235   226   163 1
  236   227   161 1
  237   228   139 1
  238   229   139 1
  239   230   153 1
  240   231   152 1
  241   232   150 1
  242   233   149 1
  243   234   148 1
  244   235   162 1
  245   65    153 1
  246   65    174 1
@<TRIPOS>SUBSTRUCTURE
      1 CLA               1 ****               0 ****  **** 
      2 LUT             138 ****               0 ****  **** 
