@<TRIPOS>MOLECULE
Cpptraj generated mol2 file.
  235   246     2     0     0
SMALL
USER_CHARGES


@<TRIPOS>ATOM
      1 CAA        80.0659   59.4736   34.3689 a2         1 CLA     -0.055900
      2 CAB        78.9800   62.0318   43.8390 c8         1 CLA     -0.148500
      3 CAC        72.4805   57.7596   42.2344 a2         1 CLA     -0.012600
      4 CAD        75.6946   56.9468   34.7475 ck         1 CLA      0.398800
      5 NA         78.8116   59.3357   37.7800 ns         1 CLA     -0.225500
      6 CBA        81.3697   59.3659   33.6324 a2         1 CLA     -0.135000
      7 CBB        79.5673   63.0813   44.4384 c0         1 CLA     -0.395200
      8 CBC        72.6257   56.4203   42.9846 a3         1 CLA     -0.037700
      9 CBD        77.1622   57.4961   34.7235 a1         1 CLA     -0.053900
     10 NB         78.4235   60.3147   40.5647 nm         1 CLA     -0.295700
     11 OBD        75.1956   56.3801   33.7201 o2         1 CLA     -0.494600
     12 CGA        81.8749   58.0137   33.1986 c4         1 CLA      0.827000
     13 CGD        78.1467   56.4190   34.4052 c4         1 CLA      0.655300
     14 ND         75.8885   58.2716   38.0081 nm         1 CLA     -0.291600
     15 CED        78.9451   54.3011   35.0792 a3         1 CLA      0.005400
     16 CHA        77.4656   58.1293   36.1038 cs         1 CLA     -0.123800
     17 CHB        80.2968   60.7208   39.0545 aa         1 CLA     -0.291900
     18 CHC        76.8153   60.4130   42.4534 aa         1 CLA     -0.090400
     19 CHD        73.9592   57.9051   39.3783 aa         1 CLA     -0.052000
     20 CMA        82.2638   59.0990   37.4433 a3         1 CLA     -0.230700
     21 CMB        81.5159   62.2085   41.6309 a3         1 CLA     -0.180800
     22 CMC        74.1874   59.6657   44.0614 a3         1 CLA     -0.134000
     23 CMD        72.8185   56.4517   36.6892 a3         1 CLA     -0.141100
     24 C1         82.7815   55.8660   33.7661 a2         1 CLA      0.023000
     25 C1A        78.7329   58.7379   36.5447 ac         1 CLA     -0.015100
     26 C1B        79.5980   60.8998   40.2554 cr         1 CLA      0.054700
     27 C1C        75.7331   59.7058   41.9618 cn         1 CLA     -0.005600
     28 C1D        74.6136   57.7145   38.1757 ap         1 CLA     -0.047300
     29 O1A        81.7781   57.5116   32.0666 o2         1 CLA     -0.610800
     30 O1D        78.8720   56.4157   33.3898 o2         1 CLA     -0.558200
     31 C2         83.3547   55.0428   34.9373 c8         1 CLA     -0.325100
     32 C2A        80.1185   58.8415   35.8192 a1         1 CLA      0.098600
     33 C2B        80.1073   61.5740   41.4245 cb         1 CLA      0.088500
     34 C2C        74.5759   59.2313   42.7207 cb         1 CLA      0.053700
     35 C2D        74.1429   57.0653   36.9958 cb         1 CLA      0.058900
     36 O2A        82.4644   57.2518   34.2146 o1         1 CLA     -0.437200
     37 O2D        78.1927   55.4490   35.3779 o1         1 CLA     -0.357600
     38 C3         84.2718   54.0475   34.8436 c5         1 CLA      0.031200
     39 C3A        80.8951   59.7628   36.8736 a1         1 CLA      0.166800
     40 C3B        79.0919   61.4838   42.4320 cb         1 CLA      0.035000
     41 C3C        73.7902   58.4105   41.8729 cb         1 CLA     -0.089900
     42 C3D        75.2524   57.2229   36.1159 cb         1 CLA     -0.035900
     43 C4         83.8850   52.7167   34.3464 a3         1 CLA     -0.053300
     44 C4A        79.9457   59.9601   37.9300 ac         1 CLA      0.001800
     45 C4B        78.0401   60.7386   41.8272 cn         1 CLA     -0.020900
     46 C4C        74.4233   58.5492   40.5500 cr         1 CLA     -0.044400
     47 C4D        76.2921   57.8730   36.8206 c6         1 CLA     -0.046000
     48 C5         85.7684   54.3397   34.9628 a2         1 CLA     -0.070400
     49 C6         85.9987   55.7018   35.7043 a2         1 CLA      0.043900
     50 C7         85.8029   55.4618   37.1605 a2         1 CLA     -0.150000
     51 C8         85.7408   56.7470   38.0546 a1         1 CLA      0.064200
     52 C9         86.9528   57.8346   37.8923 a3         1 CLA     -0.259300
     53 C10        85.3181   56.4324   39.5437 a2         1 CLA     -0.071900
     54 C11        85.2108   57.6535   40.4396 a2         1 CLA      0.014500
     55 C12        84.8396   57.2688   41.9258 a2         1 CLA     -0.112100
     56 C13        85.2451   58.3186   43.0794 a1         1 CLA      0.089200
     57 C14        86.6953   58.7967   42.9657 a3         1 CLA     -0.239100
     58 C15        85.1394   57.6854   44.4240 a2         1 CLA     -0.102200
     59 C16        83.7478   57.2509   44.9111 a2         1 CLA      0.023900
     60 C17        82.7566   58.4846   45.0714 a2         1 CLA     -0.105700
     61 C18        83.1034   59.6770   46.0714 a1         1 CLA      0.206800
     62 C19        81.9699   60.6638   46.1144 a3         1 CLA     -0.280100
     63 C20        83.3950   59.1143   47.4137 a3         1 CLA     -0.280100
     64 NC         75.6133   59.2381   40.6951 nx         1 CLA     -0.309200
     65 MG         77.1114   59.4125   39.1638 mg         1 CLA      0.895000
     66 HMD3       71.9517   57.0888   36.9123 dc         1 CLA      0.064300
     67 HMD2       72.8701   56.0876   35.6449 dc         1 CLA      0.064300
     68 HMD1       72.7605   55.6592   37.3852 dc         1 CLA      0.064300
     69 HMC3       73.0596   59.5671   44.1548 dc         1 CLA      0.052100
     70 HMC2       74.5313   58.9075   44.7904 dc         1 CLA      0.052100
     71 HMC1       74.6025   60.6230   44.3810 dc         1 CLA      0.052100
     72 HMB3       81.9044   62.0111   42.6129 dc         1 CLA      0.063600
     73 HMB2       82.1154   61.7443   40.9429 dc         1 CLA      0.063600
     74 HMB1       81.2694   63.2585   41.3397 dc         1 CLA      0.063600
     75 HMA3       83.0184   59.0715   36.6794 dc         1 CLA      0.058300
     76 HMA2       82.7205   59.7292   38.2114 dc         1 CLA      0.058300
     77 HMA1       81.9537   58.0908   37.7337 dc         1 CLA      0.058300
     78 HED3       78.7982   53.7654   34.0986 dc         1 CLA      0.079300
     79 HED2       80.0669   54.4599   35.1807 dc         1 CLA      0.079300
     80 HED1       78.8044   53.7341   35.9453 dc         1 CLA      0.079300
     81 HBC3       71.6946   56.1164   43.5080 dc         1 CLA      0.016300
     82 HBC2       72.8104   55.6153   42.2432 dc         1 CLA      0.016300
     83 HBC1       73.4073   56.3643   43.7275 dc         1 CLA      0.016300
     84 HBB2       79.2216   63.3977   45.4096 da         1 CLA      0.183000
     85 HBB1       80.2038   63.7575   43.8494 da         1 CLA      0.183000
     86 HBA2       81.2864   59.8916   32.7142 dc         1 CLA      0.029400
     87 HBA1       82.1608   59.6667   34.3341 dc         1 CLA      0.029400
     88 HAC2       71.8936   58.4821   42.8632 dc         1 CLA      0.029300
     89 HAC1       71.8151   57.5184   41.3146 dc         1 CLA      0.029300
     90 HAA2       79.2424   59.0462   33.8231 dc         1 CLA      0.028700
     91 HAA1       79.8856   60.5410   34.5813 dc         1 CLA      0.028700
     92 H203       83.7832   59.8736   48.0654 dc         1 CLA      0.065600
     93 H202       82.4356   58.7768   47.8295 dc         1 CLA      0.065600
     94 H201       84.1345   58.3580   47.3530 dc         1 CLA      0.065600
     95 H193       81.0141   60.2546   46.6133 dc         1 CLA      0.065600
     96 H192       82.2154   61.4930   46.7982 dc         1 CLA      0.065600
     97 H191       81.7436   60.9071   45.1036 dc         1 CLA      0.065600
     98 H172       82.6001   58.8355   44.0941 dc         1 CLA      0.027600
     99 H171       81.8003   57.9687   45.3437 dc         1 CLA      0.027600
    100 H162       83.3331   56.4931   44.3051 dc         1 CLA      0.002900
    101 H161       83.8899   56.7920   45.8852 dc         1 CLA      0.002900
    102 H152       85.7686   56.7664   44.4263 dc         1 CLA      0.029100
    103 H151       85.5972   58.3825   45.1643 dc         1 CLA      0.029100
    104 H143       87.3644   57.9031   42.8201 dc         1 CLA      0.063600
    105 H142       86.9397   59.3813   42.1244 dc         1 CLA      0.063600
    106 H141       87.0531   59.3321   43.8663 dc         1 CLA      0.063600
    107 H122       83.9076   56.9639   41.9987 dc         1 CLA      0.032500
    108 H121       85.4915   56.4118   42.1163 dc         1 CLA      0.032500
    109 H112       86.2003   58.2862   40.3736 dc         1 CLA      0.006600
    110 H111       84.4300   58.3081   40.1231 dc         1 CLA      0.006600
    111 H102       84.4158   55.8874   39.5144 dc         1 CLA      0.024100
    112 H101       86.0134   55.8354   40.1119 dc         1 CLA      0.024100
    113 HHD        73.0580   57.4166   39.5397 da         1 CLA      0.174300
    114 HHC        76.5973   60.7687   43.4243 da         1 CLA      0.136800
    115 HHB        81.3191   61.2482   39.0661 da         1 CLA      0.138300
    116 HBD        77.2226   58.2229   33.9205 dc         1 CLA      0.107700
    117 HAB        78.3759   61.5565   44.4927 da         1 CLA      0.155200
    118 H93        86.5718   58.8208   37.9245 dc         1 CLA      0.069500
    119 H92        87.7010   57.6846   38.6662 dc         1 CLA      0.069500
    120 H91        87.4979   57.8310   36.8858 dc         1 CLA      0.069500
    121 H8         84.9275   57.3794   37.7639 dc         1 CLA      0.029300
    122 H72        84.9150   54.8948   37.2113 dc         1 CLA      0.044400
    123 H71        86.6444   54.8684   37.5975 dc         1 CLA      0.044400
    124 H62        87.0807   55.8993   35.5813 dc         1 CLA      0.015600
    125 H61        85.4609   56.5640   35.3023 dc         1 CLA      0.015600
    126 H52        86.3929   53.6124   35.4871 dc         1 CLA      0.033200
    127 H51        86.1660   54.5013   33.9395 dc         1 CLA      0.033200
    128 H43        84.4806   52.0288   34.9264 dc         1 CLA      0.037000
    129 H42        82.8702   52.4080   34.6053 dc         1 CLA      0.037000
    130 H41        84.1300   52.5761   33.3051 dc         1 CLA      0.037000
    131 H3A        81.1986   60.7032   36.3875 dc         1 CLA      0.041100
    132 H2A        80.6574   57.9020   35.8112 dc         1 CLA      0.083100
    133 H2         82.9840   55.2660   35.8649 da         1 CLA      0.180900
    134 H18        83.9758   60.1549   45.6849 dc         1 CLA     -0.003900
    135 H13        84.6019   59.1454   42.9344 dc         1 CLA      0.019700
    136 H12        81.7574   55.4449   33.5296 dc         1 CLA      0.120400
    137 H11        83.4348   55.8743   32.8689 dc         1 CLA      0.120400
    138 C1         69.3909   62.0329   50.5815 Z1         2 LUT      0.509236
    139 C2         68.0924   61.9969   51.3854 Z2         2 LUT     -0.434695
    140 C3         67.3219   63.2657   51.5636 Z3         2 LUT      0.437453
    141 O3         67.5998   63.8103   52.8728 S1         2 LUT     -0.547129
    142 C4         67.6494   64.3065   50.5204 Z4         2 LUT     -0.468603
    143 C5         68.3440   63.9210   49.2255 Z5         2 LUT      0.279246
    144 C6         69.2143   62.8495   49.2917 Z6         2 LUT     -0.305473
    145 C7         69.6897   62.3090   47.9882 Z7         2 LUT      0.069402
    146 C8         70.4610   62.9388   47.0970 Z8         2 LUT     -0.191631
    147 C9         71.0508   62.5024   45.8262 Z9         2 LUT      0.196698
    148 C10        72.0560   63.2624   45.2064 Y1         2 LUT     -0.208611
    149 C11        72.7954   63.0463   43.9727 Y2         2 LUT      0.030784
    150 C12        73.8378   63.7849   43.5925 Y3         2 LUT     -0.220316
    151 C13        74.6465   63.7984   42.3833 Y4         2 LUT      0.215937
    152 C14        75.7819   64.5636   42.4336 Y5         2 LUT     -0.185793
    153 C15        76.8566   64.7657   41.5309 Y6         2 LUT     -0.057835
    154 C16        69.8272   60.5774   50.3136 Y7         2 LUT     -0.405615
    155 C17        70.4017   62.6985   51.5451 Y7         2 LUT     -0.405615
    156 C18        67.8015   64.6947   48.0679 Y9         2 LUT     -0.369639
    157 C19        70.5261   61.2413   45.2649 W1         2 LUT     -0.333362
    158 C20        74.1089   62.8964   41.2611 W2         2 LUT     -0.323439
    159 C21        87.9109   66.0810   35.5153 Z1         2 LUT      0.406104
    160 C22        88.5174   65.5777   34.1066 Z2         2 LUT     -0.404965
    161 C23        88.5305   66.5735   33.0109 Z3         2 LUT      0.391255
    162 O23        88.8697   65.7910   31.8473 S1         2 LUT     -0.528210
    163 C24        87.2800   67.3768   32.8455 W6         2 LUT     -0.258361
    164 C25        86.3861   67.4578   33.8431 Z5         2 LUT      0.133546
    165 C26        86.4734   66.6075   35.1977 W8         2 LUT     -0.147008
    166 C27        85.9251   67.3421   36.3558 Z7         2 LUT      0.023843
    167 C28        84.8498   66.9077   37.0589 Z8         2 LUT     -0.216987
    168 C29        84.2638   67.4326   38.2943 Z9         2 LUT      0.206524
    169 C30        83.0475   66.8701   38.6037 Y1         2 LUT     -0.215556
    170 C31        82.3954   66.9591   39.9018 Y2         2 LUT      0.025142
    171 C32        81.2175   66.2873   40.1292 Y3         2 LUT     -0.212209
    172 C33        80.3060   66.3240   41.2405 Y4         2 LUT      0.240937
    173 C34        79.1095   65.7239   41.0625 Y5         2 LUT     -0.218862
    174 C35        78.0168   65.4147   41.8854 Y6         2 LUT     -0.023547
    175 C36        88.9773   67.0219   36.1230 Y7         2 LUT     -0.393485
    176 C37        87.9282   64.7497   36.3672 Y7         2 LUT     -0.393485
    177 C38        85.1818   68.3416   33.5979 Y9         2 LUT     -0.387526
    178 C39        85.0503   68.4407   39.1610 W1         2 LUT     -0.322618
    179 C40        80.6391   67.1218   42.4548 W2         2 LUT     -0.358472
    180 H403       81.4347   66.8640   43.1397 R7         2 LUT      0.097720
    181 H402       80.8128   68.1258   42.1473 R7         2 LUT      0.097720
    182 H401       79.8546   67.1759   43.0957 R7         2 LUT      0.097720
    183 H393       85.3654   67.9956   40.0476 R4         2 LUT      0.082505
    184 H392       85.8974   68.8426   38.7241 R4         2 LUT      0.082505
    185 H391       84.3640   69.2697   39.3426 R4         2 LUT      0.082505
    186 H383       84.7697   68.0209   32.6626 R1         2 LUT      0.104030
    187 H382       84.4230   68.0921   34.3622 R1         2 LUT      0.104030
    188 H381       85.4318   69.4134   33.6407 R1         2 LUT      0.104030
    189 H373       87.3827   63.9725   35.8660 T4         2 LUT      0.089537
    190 H372       88.9197   64.3960   36.4427 T4         2 LUT      0.089537
    191 H371       87.3979   64.7242   37.3257 T4         2 LUT      0.089537
    192 H363       89.0429   67.9190   35.4779 T4         2 LUT      0.089537
    193 H362       88.7477   67.3647   37.1310 T4         2 LUT      0.089537
    194 H361       90.0119   66.7494   36.2187 T4         2 LUT      0.089537
    195 H222       89.5021   65.0990   34.2464 U2         2 LUT      0.127376
    196 H221       87.9011   64.7828   33.7329 U2         2 LUT      0.127376
    197 H203       73.7924   61.9118   41.5498 R7         2 LUT      0.087068
    198 H202       73.2632   63.3518   40.7404 R7         2 LUT      0.087068
    199 H201       74.9132   62.6732   40.5563 R7         2 LUT      0.087068
    200 H193       69.4983   61.0794   45.3160 R4         2 LUT      0.089716
    201 H192       70.7122   61.0977   44.2149 R4         2 LUT      0.089716
    202 H191       70.9424   60.3197   45.7198 R4         2 LUT      0.089716
    203 H183       68.1647   65.7546   48.1780 R1         2 LUT      0.094572
    204 H182       68.2192   64.3286   47.1592 R1         2 LUT      0.094572
    205 H181       66.7898   64.5912   47.9648 R1         2 LUT      0.094572
    206 H173       70.5046   62.1180   52.4589 T4         2 LUT      0.093752
    207 H172       71.3841   62.6617   51.0577 T4         2 LUT      0.093752
    208 H171       70.1930   63.7391   51.7389 T4         2 LUT      0.093752
    209 H163       69.1093   60.0546   49.6960 T4         2 LUT      0.093752
    210 H162       70.8349   60.3706   49.8378 T4         2 LUT      0.093752
    211 H161       69.9196   60.0784   51.2948 T4         2 LUT      0.093752
    212 HO3        66.8316   63.4467   53.4440 Q1         2 LUT      0.300121
    213 H8         70.8498   63.9467   47.3232 U7         2 LUT      0.080784
    214 H7         69.4242   61.1949   47.9038 U6         2 LUT      0.042190
    215 H42        66.6456   64.8002   50.2984 U5         2 LUT      0.145166
    216 H41        68.3433   64.9949   50.9746 U5         2 LUT      0.145166
    217 H35        77.9440   65.8580   42.8413 T3         2 LUT      0.077919
    218 H34        79.0526   65.1925   40.1510 T2         2 LUT      0.073626
    219 H32        80.9929   65.5978   39.3324 T1         2 LUT      0.092510
    220 H31        82.7673   67.6646   40.5875 U9         2 LUT      0.070048
    221 H30        82.5826   66.1221   37.8800 U8         2 LUT      0.085442
    222 H3         66.2502   62.9886   51.3687 U3         2 LUT     -0.031596
    223 H28        84.4127   65.9778   36.6251 U7         2 LUT      0.084728
    224 H27        86.4994   68.1460   36.7653 U6         2 LUT      0.087291
    225 H26        85.8625   65.7510   34.8916 Q6         2 LUT      0.075325
    226 H24        87.0587   67.9341   31.8898 Q5         2 LUT      0.094482
    227 H23        89.3514   67.4314   33.2133 U3         2 LUT     -0.024869
    228 H22        67.4570   61.3276   50.7828 U2         2 LUT      0.127376
    229 H21        68.2150   61.4616   52.3585 U2         2 LUT      0.127376
    230 H15        76.8680   64.3795   40.5107 T3         2 LUT      0.093200
    231 H14        75.8418   65.2276   43.3239 T2         2 LUT      0.068865
    232 H12        74.2463   64.4484   44.3396 T1         2 LUT      0.095507
    233 H11        72.2472   62.4204   43.2412 U9         2 LUT      0.068930
    234 H10        72.3026   64.1810   45.7462 U8         2 LUT      0.083911
    235 H1         89.1178   66.3824   31.0958 Q1         2 LUT      0.297311
@<TRIPOS>BOND
    1     6     1 1
    2     7     2 1
    3     8     3 1
    4     9     4 1
    5    11     4 1
    6    12     6 1
    7    13     9 1
    8    16     9 1
    9    25     5 1
   10    25    16 1
   11    26    10 1
   12    26    17 1
   13    27    18 1
   14    28    14 1
   15    28    19 1
   16    29    12 1
   17    30    13 1
   18    31    24 1
   19    32     1 1
   20    32    25 1
   21    33    21 1
   22    33    26 1
   23    34    22 1
   24    34    27 1
   25    35    23 1
   26    35    28 1
   27    36    12 1
   28    36    24 1
   29    37    13 1
   30    37    15 1
   31    38    31 1
   32    39    20 1
   33    39    32 1
   34    40     2 1
   35    40    33 1
   36    41     3 1
   37    41    34 1
   38    42     4 1
   39    42    35 1
   40    43    38 1
   41    44     5 1
   42    44    17 1
   43    44    39 1
   44    45    10 1
   45    45    18 1
   46    45    40 1
   47    46    19 1
   48    46    41 1
   49    47    14 1
   50    47    16 1
   51    47    42 1
   52    48    38 1
   53    49    48 1
   54    50    49 1
   55    51    50 1
   56    52    51 1
   57    53    51 1
   58    54    53 1
   59    55    54 1
   60    56    55 1
   61    57    56 1
   62    58    56 1
   63    59    58 1
   64    60    59 1
   65    61    60 1
   66    62    61 1
   67    63    61 1
   68    64    27 1
   69    64    46 1
   70    65     5 1
   71    65    10 1
   72    65    64 1
   73    65    14 1
   74    66    23 1
   75    67    23 1
   76    68    23 1
   77    69    22 1
   78    70    22 1
   79    71    22 1
   80    72    21 1
   81    73    21 1
   82    74    21 1
   83    75    20 1
   84    76    20 1
   85    77    20 1
   86    78    15 1
   87    79    15 1
   88    80    15 1
   89    81     8 1
   90    82     8 1
   91    83     8 1
   92    84     7 1
   93    85     7 1
   94    86     6 1
   95    87     6 1
   96    88     3 1
   97    89     3 1
   98    90     1 1
   99    91     1 1
  100    92    63 1
  101    93    63 1
  102    94    63 1
  103    95    62 1
  104    96    62 1
  105    97    62 1
  106    98    60 1
  107    99    60 1
  108   100    59 1
  109   101    59 1
  110   102    58 1
  111   103    58 1
  112   104    57 1
  113   105    57 1
  114   106    57 1
  115   107    55 1
  116   108    55 1
  117   109    54 1
  118   110    54 1
  119   111    53 1
  120   112    53 1
  121   113    19 1
  122   114    18 1
  123   115    17 1
  124   116     9 1
  125   117     2 1
  126   118    52 1
  127   119    52 1
  128   120    52 1
  129   121    51 1
  130   122    50 1
  131   123    50 1
  132   124    49 1
  133   125    49 1
  134   126    48 1
  135   127    48 1
  136   128    43 1
  137   129    43 1
  138   130    43 1
  139   131    39 1
  140   132    32 1
  141   133    31 1
  142   134    61 1
  143   135    56 1
  144   136    24 1
  145   137    24 1
  146   139   138 1
  147   140   139 1
  148   141   140 1
  149   142   140 1
  150   143   142 1
  151   144   138 1
  152   144   143 1
  153   145   144 1
  154   146   145 1
  155   147   146 1
  156   148   147 1
  157   149   148 1
  158   150   149 1
  159   151   150 1
  160   152   151 1
  161   153   152 1
  162   154   138 1
  163   155   138 1
  164   156   143 1
  165   157   147 1
  166   158   151 1
  167   160   159 1
  168   161   160 1
  169   162   161 1
  170   163   161 1
  171   164   163 1
  172   165   159 1
  173   165   164 1
  174   166   165 1
  175   167   166 1
  176   168   167 1
  177   169   168 1
  178   170   169 1
  179   171   170 1
  180   172   171 1
  181   173   172 1
  182   174   153 1
  183   174   173 1
  184   175   159 1
  185   176   159 1
  186   177   164 1
  187   178   168 1
  188   179   172 1
  189   180   179 1
  190   181   179 1
  191   182   179 1
  192   183   178 1
  193   184   178 1
  194   185   178 1
  195   186   177 1
  196   187   177 1
  197   188   177 1
  198   189   176 1
  199   190   176 1
  200   191   176 1
  201   192   175 1
  202   193   175 1
  203   194   175 1
  204   195   160 1
  205   196   160 1
  206   197   158 1
  207   198   158 1
  208   199   158 1
  209   200   157 1
  210   201   157 1
  211   202   157 1
  212   203   156 1
  213   204   156 1
  214   205   156 1
  215   206   155 1
  216   207   155 1
  217   208   155 1
  218   209   154 1
  219   210   154 1
  220   211   154 1
  221   212   141 1
  222   213   146 1
  223   214   145 1
  224   215   142 1
  225   216   142 1
  226   217   174 1
  227   218   173 1
  228   219   171 1
  229   220   170 1
  230   221   169 1
  231   222   140 1
  232   223   167 1
  233   224   166 1
  234   225   165 1
  235   226   163 1
  236   227   161 1
  237   228   139 1
  238   229   139 1
  239   230   153 1
  240   231   152 1
  241   232   150 1
  242   233   149 1
  243   234   148 1
  244   235   162 1
  245   65    153 1
  246   65    174 1
@<TRIPOS>SUBSTRUCTURE
      1 CLA               1 ****               0 ****  **** 
      2 LUT             138 ****               0 ****  **** 
