@<TRIPOS>MOLECULE
Cpptraj generated mol2 file.
  235   246     2     0     0
SMALL
USER_CHARGES


@<TRIPOS>ATOM
      1 CAA        79.0085   58.8641   33.5981 a2         1 CLA     -0.055900
      2 CAB        78.5434   61.8720   42.8035 c8         1 CLA     -0.148500
      3 CAC        71.8594   57.4817   42.2033 a2         1 CLA     -0.012600
      4 CAD        74.5624   56.3135   34.3787 ck         1 CLA      0.398800
      5 NA         77.6660   58.9972   37.0381 ns         1 CLA     -0.225500
      6 CBA        80.3350   58.7538   32.8595 a2         1 CLA     -0.135000
      7 CBB        79.6209   61.8375   43.6506 c0         1 CLA     -0.395200
      8 CBC        72.3123   56.1145   42.6335 a3         1 CLA     -0.037700
      9 CBD        76.0267   56.8848   34.1468 a1         1 CLA     -0.053900
     10 NB         77.5040   60.0607   39.7253 nm         1 CLA     -0.295700
     11 OBD        73.8506   55.6090   33.6223 o2         1 CLA     -0.494600
     12 CGA        80.6162   57.2891   32.4868 c4         1 CLA      0.827000
     13 CGD        77.0540   55.7970   33.7357 c4         1 CLA      0.655300
     14 ND         74.9180   58.0890   37.4994 nm         1 CLA     -0.291600
     15 CED        77.8617   53.5440   34.2537 a3         1 CLA      0.005400
     16 CHA        76.3374   57.7363   35.3996 cs         1 CLA     -0.123800
     17 CHB        79.5050   60.1924   38.2389 aa         1 CLA     -0.291900
     18 CHC        76.0004   60.4295   41.6271 aa         1 CLA     -0.090400
     19 CHD        73.1885   57.4853   39.0575 aa         1 CLA     -0.052000
     20 CMA        81.2346   58.3522   36.3901 a3         1 CLA     -0.230700
     21 CMB        80.9021   61.5373   40.7559 a3         1 CLA     -0.180800
     22 CMC        73.8410   59.6140   43.7065 a3         1 CLA     -0.134000
     23 CMD        71.8188   56.1082   36.4555 a3         1 CLA     -0.141100
     24 C1         81.5459   55.1785   33.3361 a2         1 CLA      0.023000
     25 C1A        77.5341   58.3597   35.7771 ac         1 CLA     -0.015100
     26 C1B        78.8499   60.4360   39.4523 cr         1 CLA      0.054700
     27 C1C        74.9636   59.5432   41.3885 cn         1 CLA     -0.005600
     28 C1D        73.7146   57.4465   37.7654 ap         1 CLA     -0.047300
     29 O1A        80.3964   56.7218   31.4018 o2         1 CLA     -0.610800
     30 O1D        78.0141   55.9164   33.0088 o2         1 CLA     -0.558200
     31 C2         82.4014   54.7871   34.4803 c8         1 CLA     -0.325100
     32 C2A        78.9594   58.2978   35.0703 a1         1 CLA      0.098600
     33 C2B        79.4439   61.0696   40.5945 cb         1 CLA      0.088500
     34 C2C        73.9514   59.1678   42.3059 cb         1 CLA      0.053700
     35 C2D        73.1756   56.7764   36.6030 cb         1 CLA      0.058900
     36 O2A        81.2390   56.6420   33.4927 o1         1 CLA     -0.437200
     37 O2D        76.8125   54.6141   34.4319 o1         1 CLA     -0.357600
     38 C3         83.4867   54.0273   34.4849 c5         1 CLA      0.031200
     39 C3A        79.9150   59.0905   36.0036 a1         1 CLA      0.166800
     40 C3B        78.3926   61.2314   41.4652 cb         1 CLA      0.035000
     41 C3C        73.0621   58.2918   41.6012 cb         1 CLA     -0.089900
     42 C3D        74.1797   56.8011   35.7353 cb         1 CLA     -0.035900
     43 C4         83.3398   52.6298   34.8930 a3         1 CLA     -0.053300
     44 C4A        79.0034   59.4721   37.1841 ac         1 CLA      0.001800
     45 C4B        77.2024   60.6132   40.9257 cn         1 CLA     -0.020900
     46 C4C        73.7221   58.1572   40.2279 cr         1 CLA     -0.044400
     47 C4D        75.2396   57.6522   36.2560 c6         1 CLA     -0.046000
     48 C5         84.8834   54.5946   34.2201 a2         1 CLA     -0.070400
     49 C6         85.2074   55.9082   34.9894 a2         1 CLA      0.043900
     50 C7         85.3621   55.6495   36.5246 a2         1 CLA     -0.150000
     51 C8         85.0035   56.9845   37.2830 a1         1 CLA      0.064200
     52 C9         86.0530   58.0463   36.8838 a3         1 CLA     -0.259300
     53 C10        84.7966   56.8207   38.7634 a2         1 CLA     -0.071900
     54 C11        84.8124   58.1383   39.5617 a2         1 CLA      0.014500
     55 C12        84.4623   57.9998   41.0996 a2         1 CLA     -0.112100
     56 C13        84.3322   59.3270   41.9334 a1         1 CLA      0.089200
     57 C14        85.7104   60.1404   42.0137 a3         1 CLA     -0.239100
     58 C15        83.6242   59.0718   43.3432 a2         1 CLA     -0.102200
     59 C16        84.4376   58.3822   44.4411 a2         1 CLA      0.023900
     60 C17        83.6230   57.9795   45.6262 a2         1 CLA     -0.105700
     61 C18        84.3881   56.9908   46.5304 a1         1 CLA      0.206800
     62 C19        85.4963   57.7216   47.4111 a3         1 CLA     -0.280100
     63 C20        83.3885   56.0993   47.3032 a3         1 CLA     -0.280100
     64 NC         74.7912   58.9808   40.1409 nx         1 CLA     -0.309200
     65 MG         76.1415   59.1440   38.5482 mg         1 CLA      0.895000
     66 HMD3       71.4502   55.7096   37.3953 dc         1 CLA      0.064300
     67 HMD2       71.0517   56.8279   36.0525 dc         1 CLA      0.064300
     68 HMD1       71.8077   55.3204   35.6567 dc         1 CLA      0.064300
     69 HMC3       72.8364   59.6495   44.1110 dc         1 CLA      0.052100
     70 HMC2       74.2850   58.8737   44.3601 dc         1 CLA      0.052100
     71 HMC1       74.3240   60.5236   43.8304 dc         1 CLA      0.052100
     72 HMB3       81.4314   61.7762   39.7856 dc         1 CLA      0.063600
     73 HMB2       80.9075   62.4230   41.3657 dc         1 CLA      0.063600
     74 HMB1       81.5738   60.7562   41.2156 dc         1 CLA      0.063600
     75 HMA3       81.8885   58.3250   35.5634 dc         1 CLA      0.058300
     76 HMA2       81.7622   58.8776   37.2066 dc         1 CLA      0.058300
     77 HMA1       80.9149   57.3020   36.6492 dc         1 CLA      0.058300
     78 HED3       77.8479   52.8585   33.4023 dc         1 CLA      0.079300
     79 HED2       78.8204   54.0690   34.2004 dc         1 CLA      0.079300
     80 HED1       77.8220   53.0783   35.2315 dc         1 CLA      0.079300
     81 HBC3       72.8831   56.3346   43.5507 dc         1 CLA      0.016300
     82 HBC2       71.4939   55.5329   42.8208 dc         1 CLA      0.016300
     83 HBC1       72.8926   55.7050   41.8291 dc         1 CLA      0.016300
     84 HBB2       79.6198   62.2102   44.7025 da         1 CLA      0.183000
     85 HBB1       80.5926   61.2879   43.3404 da         1 CLA      0.183000
     86 HBA2       80.4035   59.3339   31.9447 dc         1 CLA      0.029400
     87 HBA1       81.0952   59.2980   33.4313 dc         1 CLA      0.029400
     88 HAC2       71.4917   57.9855   43.0715 dc         1 CLA      0.029300
     89 HAC1       71.0339   57.4877   41.4571 dc         1 CLA      0.029300
     90 HAA2       78.2437   58.4249   32.9553 dc         1 CLA      0.028700
     91 HAA1       78.8876   59.9367   33.6978 dc         1 CLA      0.028700
     92 H203       83.9746   55.3353   47.8254 dc         1 CLA      0.065600
     93 H202       82.6748   56.6383   47.8878 dc         1 CLA      0.065600
     94 H201       82.8296   55.4663   46.5937 dc         1 CLA      0.065600
     95 H193       86.3671   57.0484   47.5467 dc         1 CLA      0.065600
     96 H192       85.8255   58.6152   46.8436 dc         1 CLA      0.065600
     97 H191       85.1904   57.8856   48.4365 dc         1 CLA      0.065600
     98 H172       83.3171   58.8599   46.2475 dc         1 CLA      0.027600
     99 H171       82.7241   57.4763   45.2819 dc         1 CLA      0.027600
    100 H162       84.9761   57.5887   44.0884 dc         1 CLA      0.002900
    101 H161       85.2789   59.0788   44.7448 dc         1 CLA      0.002900
    102 H152       83.3777   60.0644   43.7528 dc         1 CLA      0.029100
    103 H151       82.7624   58.4779   43.1390 dc         1 CLA      0.029100
    104 H143       86.5207   59.5108   42.4350 dc         1 CLA      0.063600
    105 H142       86.0062   60.4453   41.0191 dc         1 CLA      0.063600
    106 H141       85.5782   61.0108   42.6409 dc         1 CLA      0.063600
    107 H122       83.5068   57.3999   41.2365 dc         1 CLA      0.032500
    108 H121       85.1924   57.4026   41.5417 dc         1 CLA      0.032500
    109 H112       85.8463   58.5379   39.6485 dc         1 CLA      0.006600
    110 H111       84.1029   58.7631   39.0219 dc         1 CLA      0.006600
    111 H102       83.8904   56.3079   39.1347 dc         1 CLA      0.024100
    112 H101       85.6282   56.2968   39.1597 dc         1 CLA      0.024100
    113 HHD        72.3770   56.8130   39.3104 da         1 CLA      0.174300
    114 HHC        76.0561   60.9698   42.6074 da         1 CLA      0.136800
    115 HHB        80.5200   60.5115   38.1182 da         1 CLA      0.138300
    116 HBD        76.0184   57.6193   33.3349 dc         1 CLA      0.107700
    117 HAB        77.6719   62.4239   43.1426 da         1 CLA      0.155200
    118 H93        85.9999   58.2598   35.8381 dc         1 CLA      0.069500
    119 H92        85.9840   59.0036   37.4030 dc         1 CLA      0.069500
    120 H91        87.0429   57.6852   37.0016 dc         1 CLA      0.069500
    121 H8         84.0823   57.4351   36.8956 dc         1 CLA      0.029300
    122 H72        84.6464   54.9320   36.9128 dc         1 CLA      0.044400
    123 H71        86.3468   55.4237   36.8229 dc         1 CLA      0.044400
    124 H62        86.0299   56.4051   34.5455 dc         1 CLA      0.015600
    125 H61        84.3843   56.5894   34.7940 dc         1 CLA      0.015600
    126 H52        85.5836   53.8482   34.4802 dc         1 CLA      0.033200
    127 H51        84.9708   54.7819   33.1384 dc         1 CLA      0.033200
    128 H43        84.1749   52.4711   35.5980 dc         1 CLA      0.037000
    129 H42        82.4112   52.2542   35.3460 dc         1 CLA      0.037000
    130 H41        83.5280   52.0701   33.9983 dc         1 CLA      0.037000
    131 H3A        80.2886   60.0688   35.5250 dc         1 CLA      0.041100
    132 H2A        79.3001   57.2486   34.9761 dc         1 CLA      0.083100
    133 H2         82.0687   55.1663   35.4247 da         1 CLA      0.180900
    134 H18        84.9406   56.3631   45.8446 dc         1 CLA     -0.003900
    135 H13        83.5534   59.9645   41.3069 dc         1 CLA      0.019700
    136 H12        80.6981   54.4698   33.3047 dc         1 CLA      0.120400
    137 H11        82.1120   54.8715   32.4213 dc         1 CLA      0.120400
    138 C1         69.0134   61.0525   49.9738 Z1         2 LUT      0.509236
    139 C2         68.6461   61.8749   51.2347 Z2         2 LUT     -0.434695
    140 C3         67.1596   62.1610   51.2567 Z3         2 LUT      0.437453
    141 O3         66.9802   62.9334   52.4281 S1         2 LUT     -0.547129
    142 C4         66.8296   63.0461   50.0827 Z4         2 LUT     -0.468603
    143 C5         67.3748   62.5920   48.7460 Z5         2 LUT      0.279246
    144 C6         68.3162   61.6099   48.6855 Z6         2 LUT     -0.305473
    145 C7         69.0578   61.4576   47.3341 Z7         2 LUT      0.069402
    146 C8         69.9897   62.2157   46.6429 Z8         2 LUT     -0.191631
    147 C9         70.5697   61.9809   45.3687 Z9         2 LUT      0.196698
    148 C10        71.6312   62.8155   45.0335 Y1         2 LUT     -0.208611
    149 C11        72.3805   62.9238   43.8624 Y2         2 LUT      0.030784
    150 C12        73.5015   63.7485   43.5428 Y3         2 LUT     -0.220316
    151 C13        74.4103   63.7578   42.4096 Y4         2 LUT      0.215937
    152 C14        75.4730   64.4923   42.3155 Y5         2 LUT     -0.185793
    153 C15        76.5298   64.4248   41.3919 Y6         2 LUT     -0.057835
    154 C16        68.3605   59.6385   50.3082 Y7         2 LUT     -0.405615
    155 C17        70.5434   60.8727   49.9607 Y7         2 LUT     -0.405615
    156 C18        67.0777   63.6310   47.7028 Y9         2 LUT     -0.369639
    157 C19        69.9138   60.9950   44.4463 W1         2 LUT     -0.333362
    158 C20        73.8917   63.3111   41.0967 W2         2 LUT     -0.323439
    159 C21        87.6332   65.6878   34.4641 Z1         2 LUT      0.406104
    160 C22        88.2791   65.1768   33.1815 Z2         2 LUT     -0.404965
    161 C23        88.2006   66.2572   32.0436 Z3         2 LUT      0.391255
    162 O23        88.8325   65.5940   30.9585 S1         2 LUT     -0.528210
    163 C24        86.8507   66.9549   31.9292 W6         2 LUT     -0.258361
    164 C25        85.9476   66.9030   32.9634 Z5         2 LUT      0.133546
    165 C26        86.1582   66.0882   34.2809 W8         2 LUT     -0.147008
    166 C27        85.4765   66.7218   35.4933 Z7         2 LUT      0.023843
    167 C28        84.2775   66.3869   35.9813 Z8         2 LUT     -0.216987
    168 C29        83.8405   66.5345   37.3477 Z9         2 LUT      0.206524
    169 C30        82.7374   65.7610   37.7295 Y1         2 LUT     -0.215556
    170 C31        81.9962   65.8308   38.9592 Y2         2 LUT      0.025142
    171 C32        80.8009   65.3620   39.2906 Y3         2 LUT     -0.212209
    172 C33        80.0407   65.5568   40.5007 Y4         2 LUT      0.240937
    173 C34        78.8067   64.8536   40.6642 Y5         2 LUT     -0.218862
    174 C35        77.7644   65.0325   41.5648 Y6         2 LUT     -0.023547
    175 C36        88.5448   66.8215   34.9735 Y7         2 LUT     -0.393485
    176 C37        87.8275   64.4726   35.4499 Y7         2 LUT     -0.393485
    177 C38        84.6613   67.6733   32.8449 Y9         2 LUT     -0.387526
    178 C39        84.3192   67.6787   38.0822 W1         2 LUT     -0.322618
    179 C40        80.5035   66.6930   41.4014 W2         2 LUT     -0.358472
    180 H403       79.6954   66.8887   42.1374 R7         2 LUT      0.097720
    181 H402       81.3801   66.3043   41.9288 R7         2 LUT      0.097720
    182 H401       80.7326   67.5334   40.7601 R7         2 LUT      0.097720
    183 H393       84.7638   68.3831   37.4609 R4         2 LUT      0.082505
    184 H392       83.5091   68.1732   38.5610 R4         2 LUT      0.082505
    185 H391       85.0777   67.4060   38.7854 R4         2 LUT      0.082505
    186 H383       84.3930   68.3056   33.6562 R1         2 LUT      0.104030
    187 H382       84.6912   68.4346   32.0648 R1         2 LUT      0.104030
    188 H381       83.8381   66.9317   32.5798 R1         2 LUT      0.104030
    189 H373       87.3592   63.5768   35.1084 T4         2 LUT      0.089537
    190 H372       88.9227   64.2947   35.6029 T4         2 LUT      0.089537
    191 H371       87.5559   64.6660   36.4923 T4         2 LUT      0.089537
    192 H363       88.4160   67.1337   36.0068 T4         2 LUT      0.089537
    193 H362       89.5542   66.4672   35.0524 T4         2 LUT      0.089537
    194 H361       88.5019   67.6877   34.3716 T4         2 LUT      0.089537
    195 H222       89.3062   64.8783   33.2817 U2         2 LUT      0.127376
    196 H221       87.6927   64.2260   32.8986 U2         2 LUT      0.127376
    197 H203       74.3063   62.3958   40.8421 R7         2 LUT      0.087068
    198 H202       72.8089   63.2758   41.0246 R7         2 LUT      0.087068
    199 H201       74.1828   63.9387   40.2860 R7         2 LUT      0.087068
    200 H193       68.8733   60.7560   44.6720 R4         2 LUT      0.089716
    201 H192       69.9705   61.2050   43.3715 R4         2 LUT      0.089716
    202 H191       70.4230   60.0363   44.5889 R4         2 LUT      0.089716
    203 H183       66.7882   63.1359   46.7632 R1         2 LUT      0.094572
    204 H182       66.2574   64.3298   48.0054 R1         2 LUT      0.094572
    205 H181       67.9395   64.2790   47.4961 R1         2 LUT      0.094572
    206 H173       70.8507   60.2945   50.8282 T4         2 LUT      0.093752
    207 H172       70.7868   60.2910   49.0927 T4         2 LUT      0.093752
    208 H171       71.0579   61.8111   49.7196 T4         2 LUT      0.093752
    209 H163       68.6340   59.2009   51.3095 T4         2 LUT      0.093752
    210 H162       67.3136   59.6875   50.2970 T4         2 LUT      0.093752
    211 H161       68.5730   58.8803   49.5753 T4         2 LUT      0.093752
    212 HO3        66.5622   62.3997   53.1168 Q1         2 LUT      0.300121
    213 H8         70.3261   63.1193   47.1703 U7         2 LUT      0.080784
    214 H7         68.7719   60.5569   46.7939 U6         2 LUT      0.042190
    215 H42        65.7525   63.2205   50.0789 U5         2 LUT      0.145166
    216 H41        67.3035   64.0388   50.2986 U5         2 LUT      0.145166
    217 H35        77.8890   65.6340   42.4960 T3         2 LUT      0.077919
    218 H34        78.5735   64.3277   39.7738 T2         2 LUT      0.073626
    219 H32        80.3303   64.7007   38.5452 T1         2 LUT      0.092510
    220 H31        82.4824   66.5089   39.6570 U9         2 LUT      0.070048
    221 H30        82.2892   65.1417   36.8943 U8         2 LUT      0.085442
    222 H3         66.5443   61.3048   51.0990 U3         2 LUT     -0.031596
    223 H28        83.6881   65.7377   35.4521 U7         2 LUT      0.084728
    224 H27        86.0928   67.3704   36.0538 U6         2 LUT      0.087291
    225 H26        85.4996   65.2344   33.9979 Q6         2 LUT      0.075325
    226 H24        86.7194   67.6786   31.1000 Q5         2 LUT      0.094482
    227 H23        88.9548   66.9852   32.2282 U3         2 LUT     -0.024869
    228 H22        68.8980   61.3097   52.1397 U2         2 LUT      0.127376
    229 H21        69.2222   62.8291   51.3088 U2         2 LUT      0.127376
    230 H15        76.4967   63.8103   40.4569 T3         2 LUT      0.093200
    231 H14        75.7336   65.1714   43.1638 T2         2 LUT      0.068865
    232 H12        73.9050   64.2738   44.3351 T1         2 LUT      0.095507
    233 H11        72.0277   62.2260   43.0910 U9         2 LUT      0.068930
    234 H10        72.0423   63.5127   45.7136 U8         2 LUT      0.083911
    235 H1         88.3140   65.8561   30.1429 Q1         2 LUT      0.297311
@<TRIPOS>BOND
    1     6     1 1
    2     7     2 1
    3     8     3 1
    4     9     4 1
    5    11     4 1
    6    12     6 1
    7    13     9 1
    8    16     9 1
    9    25     5 1
   10    25    16 1
   11    26    10 1
   12    26    17 1
   13    27    18 1
   14    28    14 1
   15    28    19 1
   16    29    12 1
   17    30    13 1
   18    31    24 1
   19    32     1 1
   20    32    25 1
   21    33    21 1
   22    33    26 1
   23    34    22 1
   24    34    27 1
   25    35    23 1
   26    35    28 1
   27    36    12 1
   28    36    24 1
   29    37    13 1
   30    37    15 1
   31    38    31 1
   32    39    20 1
   33    39    32 1
   34    40     2 1
   35    40    33 1
   36    41     3 1
   37    41    34 1
   38    42     4 1
   39    42    35 1
   40    43    38 1
   41    44     5 1
   42    44    17 1
   43    44    39 1
   44    45    10 1
   45    45    18 1
   46    45    40 1
   47    46    19 1
   48    46    41 1
   49    47    14 1
   50    47    16 1
   51    47    42 1
   52    48    38 1
   53    49    48 1
   54    50    49 1
   55    51    50 1
   56    52    51 1
   57    53    51 1
   58    54    53 1
   59    55    54 1
   60    56    55 1
   61    57    56 1
   62    58    56 1
   63    59    58 1
   64    60    59 1
   65    61    60 1
   66    62    61 1
   67    63    61 1
   68    64    27 1
   69    64    46 1
   70    65     5 1
   71    65    10 1
   72    65    64 1
   73    65    14 1
   74    66    23 1
   75    67    23 1
   76    68    23 1
   77    69    22 1
   78    70    22 1
   79    71    22 1
   80    72    21 1
   81    73    21 1
   82    74    21 1
   83    75    20 1
   84    76    20 1
   85    77    20 1
   86    78    15 1
   87    79    15 1
   88    80    15 1
   89    81     8 1
   90    82     8 1
   91    83     8 1
   92    84     7 1
   93    85     7 1
   94    86     6 1
   95    87     6 1
   96    88     3 1
   97    89     3 1
   98    90     1 1
   99    91     1 1
  100    92    63 1
  101    93    63 1
  102    94    63 1
  103    95    62 1
  104    96    62 1
  105    97    62 1
  106    98    60 1
  107    99    60 1
  108   100    59 1
  109   101    59 1
  110   102    58 1
  111   103    58 1
  112   104    57 1
  113   105    57 1
  114   106    57 1
  115   107    55 1
  116   108    55 1
  117   109    54 1
  118   110    54 1
  119   111    53 1
  120   112    53 1
  121   113    19 1
  122   114    18 1
  123   115    17 1
  124   116     9 1
  125   117     2 1
  126   118    52 1
  127   119    52 1
  128   120    52 1
  129   121    51 1
  130   122    50 1
  131   123    50 1
  132   124    49 1
  133   125    49 1
  134   126    48 1
  135   127    48 1
  136   128    43 1
  137   129    43 1
  138   130    43 1
  139   131    39 1
  140   132    32 1
  141   133    31 1
  142   134    61 1
  143   135    56 1
  144   136    24 1
  145   137    24 1
  146   139   138 1
  147   140   139 1
  148   141   140 1
  149   142   140 1
  150   143   142 1
  151   144   138 1
  152   144   143 1
  153   145   144 1
  154   146   145 1
  155   147   146 1
  156   148   147 1
  157   149   148 1
  158   150   149 1
  159   151   150 1
  160   152   151 1
  161   153   152 1
  162   154   138 1
  163   155   138 1
  164   156   143 1
  165   157   147 1
  166   158   151 1
  167   160   159 1
  168   161   160 1
  169   162   161 1
  170   163   161 1
  171   164   163 1
  172   165   159 1
  173   165   164 1
  174   166   165 1
  175   167   166 1
  176   168   167 1
  177   169   168 1
  178   170   169 1
  179   171   170 1
  180   172   171 1
  181   173   172 1
  182   174   153 1
  183   174   173 1
  184   175   159 1
  185   176   159 1
  186   177   164 1
  187   178   168 1
  188   179   172 1
  189   180   179 1
  190   181   179 1
  191   182   179 1
  192   183   178 1
  193   184   178 1
  194   185   178 1
  195   186   177 1
  196   187   177 1
  197   188   177 1
  198   189   176 1
  199   190   176 1
  200   191   176 1
  201   192   175 1
  202   193   175 1
  203   194   175 1
  204   195   160 1
  205   196   160 1
  206   197   158 1
  207   198   158 1
  208   199   158 1
  209   200   157 1
  210   201   157 1
  211   202   157 1
  212   203   156 1
  213   204   156 1
  214   205   156 1
  215   206   155 1
  216   207   155 1
  217   208   155 1
  218   209   154 1
  219   210   154 1
  220   211   154 1
  221   212   141 1
  222   213   146 1
  223   214   145 1
  224   215   142 1
  225   216   142 1
  226   217   174 1
  227   218   173 1
  228   219   171 1
  229   220   170 1
  230   221   169 1
  231   222   140 1
  232   223   167 1
  233   224   166 1
  234   225   165 1
  235   226   163 1
  236   227   161 1
  237   228   139 1
  238   229   139 1
  239   230   153 1
  240   231   152 1
  241   232   150 1
  242   233   149 1
  243   234   148 1
  244   235   162 1
  245   65    153 1
  246   65    174 1
@<TRIPOS>SUBSTRUCTURE
      1 CLA               1 ****               0 ****  **** 
      2 LUT             138 ****               0 ****  **** 
