@<TRIPOS>MOLECULE
Cpptraj generated mol2 file.
  235   246     2     0     0
SMALL
USER_CHARGES


@<TRIPOS>ATOM
      1 CAA        78.3915   58.7306   33.3951 a2         1 CLA     -0.055900
      2 CAB        78.5337   61.8040   42.7876 c8         1 CLA     -0.148500
      3 CAC        71.3786   58.0642   42.1545 a2         1 CLA     -0.012600
      4 CAD        74.0040   56.3033   34.3811 ck         1 CLA      0.398800
      5 NA         77.2974   59.0173   36.8557 ns         1 CLA     -0.225500
      6 CBA        79.7088   58.5027   32.5816 a2         1 CLA     -0.135000
      7 CBB        79.5479   61.4691   43.5923 c0         1 CLA     -0.395200
      8 CBC        71.3145   56.5367   41.9966 a3         1 CLA     -0.037700
      9 CBD        75.5731   56.8171   34.1528 a1         1 CLA     -0.053900
     10 NB         77.2012   60.2713   39.6432 nm         1 CLA     -0.295700
     11 OBD        73.3735   55.6655   33.5289 o2         1 CLA     -0.494600
     12 CGA        80.1525   57.1013   32.1899 c4         1 CLA      0.827000
     13 CGD        76.5579   55.6953   33.8524 c4         1 CLA      0.655300
     14 ND         74.5202   58.0559   37.4746 nm         1 CLA     -0.291600
     15 CED        77.5815   53.6926   34.6873 a3         1 CLA      0.005400
     16 CHA        75.9474   57.7612   35.3929 cs         1 CLA     -0.123800
     17 CHB        78.9390   60.5108   37.8907 aa         1 CLA     -0.291900
     18 CHC        75.9484   60.2534   41.7617 aa         1 CLA     -0.090400
     19 CHD        72.6972   57.6742   39.1408 aa         1 CLA     -0.052000
     20 CMA        80.6753   58.7036   36.1230 a3         1 CLA     -0.230700
     21 CMB        80.4244   62.0662   40.2317 a3         1 CLA     -0.180800
     22 CMC        73.5180   59.8699   43.6889 a3         1 CLA     -0.134000
     23 CMD        71.2340   56.3914   36.5019 a3         1 CLA     -0.141100
     24 C1         81.1042   55.1154   33.1475 a2         1 CLA      0.023000
     25 C1A        77.1778   58.4145   35.6392 ac         1 CLA     -0.015100
     26 C1B        78.3832   60.7281   39.1672 cr         1 CLA      0.054700
     27 C1C        74.7589   59.6259   41.4113 cn         1 CLA     -0.005600
     28 C1D        73.2627   57.5124   37.8119 ap         1 CLA     -0.047300
     29 O1A        79.8388   56.5576   31.1330 o2         1 CLA     -0.610800
     30 O1D        77.3682   55.6884   32.9530 o2         1 CLA     -0.558200
     31 C2         81.6723   54.5992   34.5024 c8         1 CLA     -0.325100
     32 C2A        78.4875   58.3876   34.8716 a1         1 CLA      0.098600
     33 C2B        79.1003   61.3384   40.2805 cb         1 CLA      0.088500
     34 C2C        73.6483   59.3978   42.3059 cb         1 CLA      0.053700
     35 C2D        72.7001   56.9206   36.6425 cb         1 CLA      0.058900
     36 O2A        80.9476   56.5443   33.1886 o1         1 CLA     -0.437200
     37 O2D        76.6161   54.7749   34.9049 o1         1 CLA     -0.357600
     38 C3         82.7029   53.7533   34.5464 c5         1 CLA      0.031200
     39 C3A        79.3959   59.3334   35.7021 a1         1 CLA      0.166800
     40 C3B        78.2894   61.2511   41.4238 cb         1 CLA      0.035000
     41 C3C        72.7255   58.5578   41.6229 cb         1 CLA     -0.089900
     42 C3D        73.6987   56.8123   35.6761 cb         1 CLA     -0.035900
     43 C4         82.5691   52.3509   34.9180 a3         1 CLA     -0.053300
     44 C4A        78.4782   59.7246   36.8474 ac         1 CLA      0.001800
     45 C4B        77.1044   60.5735   41.0232 cn         1 CLA     -0.020900
     46 C4C        73.3138   58.3354   40.2769 cr         1 CLA     -0.044400
     47 C4D        74.8059   57.6126   36.2635 c6         1 CLA     -0.046000
     48 C5         84.0690   54.2271   34.3722 a2         1 CLA     -0.070400
     49 C6         84.4041   55.6212   35.0365 a2         1 CLA      0.043900
     50 C7         84.4213   55.7219   36.5866 a2         1 CLA     -0.150000
     51 C8         84.4624   57.1345   37.0282 a1         1 CLA      0.064200
     52 C9         85.7139   57.9427   36.5385 a3         1 CLA     -0.259300
     53 C10        84.2382   57.2574   38.5804 a2         1 CLA     -0.071900
     54 C11        82.8484   57.1062   39.2161 a2         1 CLA      0.014500
     55 C12        82.9425   57.2047   40.7500 a2         1 CLA     -0.112100
     56 C13        81.5160   57.1579   41.4485 a1         1 CLA      0.089200
     57 C14        80.5190   58.2962   40.9753 a3         1 CLA     -0.239100
     58 C15        81.7097   56.9184   43.0218 a2         1 CLA     -0.102200
     59 C16        82.3862   57.9982   43.8231 a2         1 CLA      0.023900
     60 C17        82.7017   57.5331   45.2657 a2         1 CLA     -0.105700
     61 C18        83.4518   58.5160   46.2081 a1         1 CLA      0.206800
     62 C19        82.7519   59.9430   46.2904 a3         1 CLA     -0.280100
     63 C20        83.8103   57.8943   47.6124 a3         1 CLA     -0.280100
     64 NC         74.4799   59.0643   40.1520 nx         1 CLA     -0.309200
     65 MG         75.8011   59.1875   38.4478 mg         1 CLA      0.895000
     66 HMD3       70.6195   57.2188   36.2136 dc         1 CLA      0.064300
     67 HMD2       71.2525   55.5788   35.7413 dc         1 CLA      0.064300
     68 HMD1       70.8988   55.8970   37.3511 dc         1 CLA      0.064300
     69 HMC3       73.8692   60.8771   43.9088 dc         1 CLA      0.052100
     70 HMC2       72.5375   59.8431   44.0750 dc         1 CLA      0.052100
     71 HMC1       74.1475   59.1880   44.2785 dc         1 CLA      0.052100
     72 HMB3       80.1635   63.0197   39.8544 dc         1 CLA      0.063600
     73 HMB2       80.9204   62.1277   41.1912 dc         1 CLA      0.063600
     74 HMB1       81.1538   61.4249   39.7010 dc         1 CLA      0.063600
     75 HMA3       81.3721   59.4562   36.5497 dc         1 CLA      0.058300
     76 HMA2       80.4606   57.7878   36.7563 dc         1 CLA      0.058300
     77 HMA1       81.1875   58.3229   35.2763 dc         1 CLA      0.058300
     78 HED3       77.2944   52.8377   35.2941 dc         1 CLA      0.079300
     79 HED2       77.6027   53.3270   33.6354 dc         1 CLA      0.079300
     80 HED1       78.5583   54.0082   34.9580 dc         1 CLA      0.079300
     81 HBC3       71.8047   56.0380   41.1896 dc         1 CLA      0.016300
     82 HBC2       71.8001   56.1104   42.8934 dc         1 CLA      0.016300
     83 HBC1       70.3187   56.1407   41.9168 dc         1 CLA      0.016300
     84 HBB2       79.6359   61.9254   44.6285 da         1 CLA      0.183000
     85 HBB1       80.3132   60.7642   43.3090 da         1 CLA      0.183000
     86 HBA2       79.5790   58.9935   31.5303 dc         1 CLA      0.029400
     87 HBA1       80.5359   58.9817   33.1109 dc         1 CLA      0.029400
     88 HAC2       71.1228   58.4556   43.1654 dc         1 CLA      0.029300
     89 HAC1       70.6925   58.4600   41.5257 dc         1 CLA      0.029300
     90 HAA2       77.5753   58.1608   33.0542 dc         1 CLA      0.028700
     91 HAA1       78.2487   59.7761   33.2841 dc         1 CLA      0.028700
     92 H203       84.1452   58.7281   48.2994 dc         1 CLA      0.065600
     93 H202       82.9612   57.4105   48.1384 dc         1 CLA      0.065600
     94 H201       84.6124   57.1835   47.4629 dc         1 CLA      0.065600
     95 H193       81.7659   59.7385   46.1467 dc         1 CLA      0.065600
     96 H192       82.8440   60.4274   47.2430 dc         1 CLA      0.065600
     97 H191       83.1485   60.5052   45.4442 dc         1 CLA      0.065600
     98 H172       81.8201   57.1084   45.6765 dc         1 CLA      0.027600
     99 H171       83.4277   56.6503   45.4084 dc         1 CLA      0.027600
    100 H162       83.2735   58.3087   43.2912 dc         1 CLA      0.002900
    101 H161       81.7586   58.8668   43.8571 dc         1 CLA      0.002900
    102 H152       80.7580   56.7552   43.5555 dc         1 CLA      0.029100
    103 H151       82.2740   55.9758   43.1782 dc         1 CLA      0.029100
    104 H143       80.2927   58.4023   39.8990 dc         1 CLA      0.063600
    105 H142       79.6432   58.1021   41.5787 dc         1 CLA      0.063600
    106 H141       81.0908   59.1469   41.4037 dc         1 CLA      0.063600
    107 H122       83.4893   56.3018   41.1771 dc         1 CLA      0.032500
    108 H121       83.4014   58.2021   41.0485 dc         1 CLA      0.032500
    109 H112       82.2104   57.8643   38.8345 dc         1 CLA      0.006600
    110 H111       82.4105   56.1587   38.8595 dc         1 CLA      0.006600
    111 H102       84.7836   56.4352   39.0118 dc         1 CLA      0.024100
    112 H101       84.7296   58.1636   38.8579 dc         1 CLA      0.024100
    113 HHD        71.7393   57.3051   39.2078 da         1 CLA      0.174300
    114 HHC        76.0899   60.5061   42.8186 da         1 CLA      0.136800
    115 HHB        79.9982   60.9172   37.8720 da         1 CLA      0.138300
    116 HBD        75.4106   57.5042   33.2573 dc         1 CLA      0.107700
    117 HAB        77.7661   62.4568   43.2507 da         1 CLA      0.155200
    118 H93        85.7836   58.9490   36.9454 dc         1 CLA      0.069500
    119 H92        86.6220   57.4100   36.7647 dc         1 CLA      0.069500
    120 H91        85.7477   58.0449   35.4665 dc         1 CLA      0.069500
    121 H8         83.5860   57.6532   36.6638 dc         1 CLA      0.029300
    122 H72        83.6289   55.1618   37.0751 dc         1 CLA      0.044400
    123 H71        85.3343   55.2193   36.7470 dc         1 CLA      0.044400
    124 H62        85.3215   56.0197   34.6517 dc         1 CLA      0.015600
    125 H61        83.6649   56.3344   34.7112 dc         1 CLA      0.015600
    126 H52        84.7086   53.5765   34.9607 dc         1 CLA      0.033200
    127 H51        84.2944   54.1505   33.3218 dc         1 CLA      0.033200
    128 H43        82.8995   51.6391   34.1100 dc         1 CLA      0.037000
    129 H42        83.0806   52.1722   35.8748 dc         1 CLA      0.037000
    130 H41        81.5060   52.1140   35.1560 dc         1 CLA      0.037000
    131 H3A        79.6862   60.2697   35.1473 dc         1 CLA      0.041100
    132 H2A        78.9555   57.3884   34.7878 dc         1 CLA      0.083100
    133 H2         81.5295   55.2222   35.3938 da         1 CLA      0.180900
    134 H18        84.4441   58.7794   45.8250 dc         1 CLA     -0.003900
    135 H13        80.9924   56.3095   40.8439 dc         1 CLA      0.019700
    136 H12        80.1255   54.7347   32.9538 dc         1 CLA      0.120400
    137 H11        81.7888   54.8285   32.3279 dc         1 CLA      0.120400
    138 C1         67.9708   61.4363   49.7096 Z1         2 LUT      0.509236
    139 C2         66.4936   61.3710   50.2622 Z2         2 LUT     -0.434695
    140 C3         65.8754   62.7125   50.4716 Z3         2 LUT      0.437453
    141 O3         65.9991   63.0122   51.9091 S1         2 LUT     -0.547129
    142 C4         66.4018   63.8528   49.5599 Z4         2 LUT     -0.468603
    143 C5         67.3619   63.5165   48.4941 Z5         2 LUT      0.279246
    144 C6         68.1190   62.4353   48.4830 Z6         2 LUT     -0.305473
    145 C7         68.7557   62.0220   47.2570 Z7         2 LUT      0.069402
    146 C8         69.7907   62.6035   46.6478 Z8         2 LUT     -0.191631
    147 C9         70.3513   62.2919   45.3248 Z9         2 LUT      0.196698
    148 C10        71.3796   63.1092   44.9023 Y1         2 LUT     -0.208611
    149 C11        72.0301   63.0373   43.6318 Y2         2 LUT      0.030784
    150 C12        73.2206   63.7967   43.3641 Y3         2 LUT     -0.220316
    151 C13        74.1174   63.7296   42.2283 Y4         2 LUT      0.215937
    152 C14        75.3622   64.3426   42.2595 Y5         2 LUT     -0.185793
    153 C15        76.4431   64.3356   41.3093 Y6         2 LUT     -0.057835
    154 C16        68.4835   59.9637   49.5058 Y7         2 LUT     -0.405615
    155 C17        68.9207   62.0249   50.8333 Y7         2 LUT     -0.405615
    156 C18        67.2345   64.4144   47.3131 Y9         2 LUT     -0.369639
    157 C19        69.7254   61.3143   44.4100 W1         2 LUT     -0.333362
    158 C20        73.7682   62.8389   41.0313 W2         2 LUT     -0.323439
    159 C21        87.5417   66.0661   34.6667 Z1         2 LUT      0.406104
    160 C22        88.2296   65.5712   33.4612 Z2         2 LUT     -0.404965
    161 C23        88.2778   66.6748   32.3272 Z3         2 LUT      0.391255
    162 O23        89.0671   66.2526   31.2553 S1         2 LUT     -0.528210
    163 C24        86.9389   67.3050   32.1121 W6         2 LUT     -0.258361
    164 C25        85.9058   67.3465   33.0060 Z5         2 LUT      0.133546
    165 C26        86.0858   66.5940   34.4047 W8         2 LUT     -0.147008
    166 C27        85.4210   67.3038   35.5898 Z7         2 LUT      0.023843
    167 C28        84.2754   66.7855   36.1804 Z8         2 LUT     -0.216987
    168 C29        83.7098   67.0328   37.4638 Z9         2 LUT      0.206524
    169 C30        82.4000   66.4823   37.7399 Y1         2 LUT     -0.215556
    170 C31        81.7131   66.6020   39.0496 Y2         2 LUT      0.025142
    171 C32        80.5086   65.9499   39.2562 Y3         2 LUT     -0.212209
    172 C33        79.7413   65.9294   40.4590 Y4         2 LUT      0.240937
    173 C34        78.5832   65.2230   40.4713 Y5         2 LUT     -0.218862
    174 C35        77.5839   65.0397   41.4934 Y6         2 LUT     -0.023547
    175 C36        88.5145   67.0512   35.4311 Y7         2 LUT     -0.393485
    176 C37        87.5417   64.7778   35.5816 Y7         2 LUT     -0.393485
    177 C38        84.5773   67.9246   32.7090 Y9         2 LUT     -0.387526
    178 C39        84.5472   67.9571   38.3563 W1         2 LUT     -0.322618
    179 C40        80.1644   66.9222   41.6168 W2         2 LUT     -0.358472
    180 H403       79.6172   66.7891   42.5292 R7         2 LUT      0.097720
    181 H402       81.1972   66.9581   41.8681 R7         2 LUT      0.097720
    182 H401       79.8924   67.9484   41.3311 R7         2 LUT      0.097720
    183 H393       83.9199   68.4610   39.1685 R4         2 LUT      0.082505
    184 H392       85.2597   67.4677   38.9859 R4         2 LUT      0.082505
    185 H391       85.1055   68.7339   37.8478 R4         2 LUT      0.082505
    186 H383       84.5247   68.9295   33.0879 R1         2 LUT      0.104030
    187 H382       84.4703   68.0335   31.6137 R1         2 LUT      0.104030
    188 H381       83.8002   67.2854   33.1980 R1         2 LUT      0.104030
    189 H373       86.9888   64.8911   36.4893 T4         2 LUT      0.089537
    190 H372       86.9620   63.9483   35.2129 T4         2 LUT      0.089537
    191 H371       88.5137   64.4408   35.8098 T4         2 LUT      0.089537
    192 H363       89.4854   66.4790   35.6487 T4         2 LUT      0.089537
    193 H362       88.6203   67.9648   34.7658 T4         2 LUT      0.089537
    194 H361       88.1150   67.4137   36.3406 T4         2 LUT      0.089537
    195 H222       89.2772   65.4193   33.6689 U2         2 LUT      0.127376
    196 H221       87.7367   64.6628   33.0710 U2         2 LUT      0.127376
    197 H203       73.5031   61.8050   41.3460 R7         2 LUT      0.087068
    198 H202       72.7937   63.1954   40.6160 R7         2 LUT      0.087068
    199 H201       74.5903   62.6944   40.3210 R7         2 LUT      0.087068
    200 H193       68.6655   61.1398   44.6589 R4         2 LUT      0.089716
    201 H192       69.6364   61.7139   43.3611 R4         2 LUT      0.089716
    202 H191       70.1789   60.3672   44.4030 R4         2 LUT      0.089716
    203 H183       67.0457   63.8767   46.3512 R1         2 LUT      0.094572
    204 H182       66.3773   65.0040   47.4672 R1         2 LUT      0.094572
    205 H181       68.0705   65.1843   47.1992 R1         2 LUT      0.094572
    206 H173       68.6931   63.0473   51.1422 T4         2 LUT      0.093752
    207 H172       68.8722   61.3742   51.7654 T4         2 LUT      0.093752
    208 H171       69.9850   61.9990   50.5552 T4         2 LUT      0.093752
    209 H163       69.5873   59.9302   49.4312 T4         2 LUT      0.093752
    210 H162       68.1419   59.2516   50.2304 T4         2 LUT      0.093752
    211 H161       68.0729   59.6300   48.5225 T4         2 LUT      0.093752
    212 HO3        65.4459   62.4346   52.4426 Q1         2 LUT      0.300121
    213 H8         70.2078   63.4427   47.1545 U7         2 LUT      0.080784
    214 H7         68.4883   61.1385   46.6799 U6         2 LUT      0.042190
    215 H42        65.4893   64.1555   49.1288 U5         2 LUT      0.145166
    216 H41        66.6005   64.6954   50.2113 U5         2 LUT      0.145166
    217 H35        77.7149   65.4464   42.4620 T3         2 LUT      0.077919
    218 H34        78.2296   64.9038   39.4984 T2         2 LUT      0.073626
    219 H32        79.9815   65.4582   38.3885 T1         2 LUT      0.092510
    220 H31        82.1606   67.0705   39.8938 U9         2 LUT      0.070048
    221 H30        81.8468   65.7566   37.1109 U8         2 LUT      0.085442
    222 H3         64.7628   62.8213   50.4778 U3         2 LUT     -0.031596
    223 H28        83.6807   66.0928   35.6180 U7         2 LUT      0.084728
    224 H27        85.9873   68.0760   36.1852 U6         2 LUT      0.087291
    225 H26        85.3252   65.7607   34.0979 Q6         2 LUT      0.075325
    226 H24        86.7197   67.8688   31.1510 Q5         2 LUT      0.094482
    227 H23        88.9798   67.5346   32.6188 U3         2 LUT     -0.024869
    228 H22        65.9964   60.8826   49.4547 U2         2 LUT      0.127376
    229 H21        66.4627   60.6968   51.1022 U2         2 LUT      0.127376
    230 H15        76.4504   63.7751   40.3441 T3         2 LUT      0.093200
    231 H14        75.6438   64.8684   43.1977 T2         2 LUT      0.068865
    232 H12        73.5280   64.3697   44.2414 T1         2 LUT      0.095507
    233 H11        71.6663   62.3706   42.9142 U9         2 LUT      0.068930
    234 H10        71.7935   63.8706   45.5488 U8         2 LUT      0.083911
    235 H1         88.5165   66.0013   30.4962 Q1         2 LUT      0.297311
@<TRIPOS>BOND
    1     6     1 1
    2     7     2 1
    3     8     3 1
    4     9     4 1
    5    11     4 1
    6    12     6 1
    7    13     9 1
    8    16     9 1
    9    25     5 1
   10    25    16 1
   11    26    10 1
   12    26    17 1
   13    27    18 1
   14    28    14 1
   15    28    19 1
   16    29    12 1
   17    30    13 1
   18    31    24 1
   19    32     1 1
   20    32    25 1
   21    33    21 1
   22    33    26 1
   23    34    22 1
   24    34    27 1
   25    35    23 1
   26    35    28 1
   27    36    12 1
   28    36    24 1
   29    37    13 1
   30    37    15 1
   31    38    31 1
   32    39    20 1
   33    39    32 1
   34    40     2 1
   35    40    33 1
   36    41     3 1
   37    41    34 1
   38    42     4 1
   39    42    35 1
   40    43    38 1
   41    44     5 1
   42    44    17 1
   43    44    39 1
   44    45    10 1
   45    45    18 1
   46    45    40 1
   47    46    19 1
   48    46    41 1
   49    47    14 1
   50    47    16 1
   51    47    42 1
   52    48    38 1
   53    49    48 1
   54    50    49 1
   55    51    50 1
   56    52    51 1
   57    53    51 1
   58    54    53 1
   59    55    54 1
   60    56    55 1
   61    57    56 1
   62    58    56 1
   63    59    58 1
   64    60    59 1
   65    61    60 1
   66    62    61 1
   67    63    61 1
   68    64    27 1
   69    64    46 1
   70    65     5 1
   71    65    10 1
   72    65    64 1
   73    65    14 1
   74    66    23 1
   75    67    23 1
   76    68    23 1
   77    69    22 1
   78    70    22 1
   79    71    22 1
   80    72    21 1
   81    73    21 1
   82    74    21 1
   83    75    20 1
   84    76    20 1
   85    77    20 1
   86    78    15 1
   87    79    15 1
   88    80    15 1
   89    81     8 1
   90    82     8 1
   91    83     8 1
   92    84     7 1
   93    85     7 1
   94    86     6 1
   95    87     6 1
   96    88     3 1
   97    89     3 1
   98    90     1 1
   99    91     1 1
  100    92    63 1
  101    93    63 1
  102    94    63 1
  103    95    62 1
  104    96    62 1
  105    97    62 1
  106    98    60 1
  107    99    60 1
  108   100    59 1
  109   101    59 1
  110   102    58 1
  111   103    58 1
  112   104    57 1
  113   105    57 1
  114   106    57 1
  115   107    55 1
  116   108    55 1
  117   109    54 1
  118   110    54 1
  119   111    53 1
  120   112    53 1
  121   113    19 1
  122   114    18 1
  123   115    17 1
  124   116     9 1
  125   117     2 1
  126   118    52 1
  127   119    52 1
  128   120    52 1
  129   121    51 1
  130   122    50 1
  131   123    50 1
  132   124    49 1
  133   125    49 1
  134   126    48 1
  135   127    48 1
  136   128    43 1
  137   129    43 1
  138   130    43 1
  139   131    39 1
  140   132    32 1
  141   133    31 1
  142   134    61 1
  143   135    56 1
  144   136    24 1
  145   137    24 1
  146   139   138 1
  147   140   139 1
  148   141   140 1
  149   142   140 1
  150   143   142 1
  151   144   138 1
  152   144   143 1
  153   145   144 1
  154   146   145 1
  155   147   146 1
  156   148   147 1
  157   149   148 1
  158   150   149 1
  159   151   150 1
  160   152   151 1
  161   153   152 1
  162   154   138 1
  163   155   138 1
  164   156   143 1
  165   157   147 1
  166   158   151 1
  167   160   159 1
  168   161   160 1
  169   162   161 1
  170   163   161 1
  171   164   163 1
  172   165   159 1
  173   165   164 1
  174   166   165 1
  175   167   166 1
  176   168   167 1
  177   169   168 1
  178   170   169 1
  179   171   170 1
  180   172   171 1
  181   173   172 1
  182   174   153 1
  183   174   173 1
  184   175   159 1
  185   176   159 1
  186   177   164 1
  187   178   168 1
  188   179   172 1
  189   180   179 1
  190   181   179 1
  191   182   179 1
  192   183   178 1
  193   184   178 1
  194   185   178 1
  195   186   177 1
  196   187   177 1
  197   188   177 1
  198   189   176 1
  199   190   176 1
  200   191   176 1
  201   192   175 1
  202   193   175 1
  203   194   175 1
  204   195   160 1
  205   196   160 1
  206   197   158 1
  207   198   158 1
  208   199   158 1
  209   200   157 1
  210   201   157 1
  211   202   157 1
  212   203   156 1
  213   204   156 1
  214   205   156 1
  215   206   155 1
  216   207   155 1
  217   208   155 1
  218   209   154 1
  219   210   154 1
  220   211   154 1
  221   212   141 1
  222   213   146 1
  223   214   145 1
  224   215   142 1
  225   216   142 1
  226   217   174 1
  227   218   173 1
  228   219   171 1
  229   220   170 1
  230   221   169 1
  231   222   140 1
  232   223   167 1
  233   224   166 1
  234   225   165 1
  235   226   163 1
  236   227   161 1
  237   228   139 1
  238   229   139 1
  239   230   153 1
  240   231   152 1
  241   232   150 1
  242   233   149 1
  243   234   148 1
  244   235   162 1
  245   65    153 1
  246   65    174 1
@<TRIPOS>SUBSTRUCTURE
      1 CLA               1 ****               0 ****  **** 
      2 LUT             138 ****               0 ****  **** 
