@<TRIPOS>MOLECULE
Cpptraj generated mol2 file.
  235   246     2     0     0
SMALL
USER_CHARGES


@<TRIPOS>ATOM
      1 CAA        78.1358   58.8987   33.6012 a2         1 CLA     -0.055900
      2 CAB        78.5505   62.3390   42.7547 c8         1 CLA     -0.148500
      3 CAC        71.8037   58.1602   42.3568 a2         1 CLA     -0.012600
      4 CAD        73.9373   56.2679   34.9213 ck         1 CLA      0.398800
      5 NA         77.2597   59.2682   37.0744 ns         1 CLA     -0.225500
      6 CBA        79.3006   58.6998   32.6985 a2         1 CLA     -0.135000
      7 CBB        79.7206   62.0078   43.3917 c0         1 CLA     -0.395200
      8 CBC        71.9825   56.5782   42.2290 a3         1 CLA     -0.037700
      9 CBD        75.3459   56.8101   34.5610 a1         1 CLA     -0.053900
     10 NB         77.3312   60.7536   39.7049 nm         1 CLA     -0.295700
     11 OBD        73.2689   55.4912   34.2308 o2         1 CLA     -0.494600
     12 CGA        79.7574   57.2857   32.2557 c4         1 CLA      0.827000
     13 CGD        76.2143   55.6601   34.0861 c4         1 CLA      0.655300
     14 ND         74.4954   58.3159   37.7756 nm         1 CLA     -0.291600
     15 CED        76.4119   53.3164   33.6659 a3         1 CLA      0.005400
     16 CHA        75.8576   57.7772   35.6564 cs         1 CLA     -0.123800
     17 CHB        79.1113   60.6596   38.0162 aa         1 CLA     -0.291900
     18 CHC        76.1289   60.8458   41.8945 aa         1 CLA     -0.090400
     19 CHD        72.8412   58.1760   39.4785 aa         1 CLA     -0.052000
     20 CMA        80.6664   58.6088   36.2336 a3         1 CLA     -0.230700
     21 CMB        80.5430   62.5452   40.1123 a3         1 CLA     -0.180800
     22 CMC        73.8305   60.0550   43.9298 a3         1 CLA     -0.134000
     23 CMD        71.2759   56.3865   37.1214 a3         1 CLA     -0.141100
     24 C1         80.5935   55.1953   33.2095 a2         1 CLA      0.023000
     25 C1A        77.0688   58.5220   35.8832 ac         1 CLA     -0.015100
     26 C1B        78.5571   61.1272   39.2500 cr         1 CLA      0.054700
     27 C1C        74.9769   60.1103   41.5801 cn         1 CLA     -0.005600
     28 C1D        73.2617   57.8988   38.1385 ap         1 CLA     -0.047300
     29 O1A        79.4207   56.7413   31.2344 o2         1 CLA     -0.610800
     30 O1D        77.2332   55.8106   33.3992 o2         1 CLA     -0.558200
     31 C2         80.8931   54.6604   34.5653 c8         1 CLA     -0.325100
     32 C2A        78.3379   58.4561   35.0614 a1         1 CLA      0.098600
     33 C2B        79.1598   61.9141   40.2771 cb         1 CLA      0.088500
     34 C2C        73.9248   59.7195   42.5350 cb         1 CLA      0.053700
     35 C2D        72.6470   57.0617   37.1132 cb         1 CLA      0.058900
     36 O2A        80.4069   56.6810   33.3087 o1         1 CLA     -0.437200
     37 O2D        75.8496   54.4106   34.5368 o1         1 CLA     -0.357600
     38 C3         81.4665   53.4578   34.7963 c5         1 CLA      0.031200
     39 C3A        79.3663   59.3572   35.8467 a1         1 CLA      0.166800
     40 C3B        78.3705   61.8008   41.4308 cb         1 CLA      0.035000
     41 C3C        72.9280   59.0360   41.7897 cb         1 CLA     -0.089900
     42 C3D        73.6471   56.9342   36.2078 cb         1 CLA     -0.035900
     43 C4         80.6949   52.1616   35.1819 a3         1 CLA     -0.053300
     44 C4A        78.5611   59.8343   37.0652 ac         1 CLA      0.001800
     45 C4B        77.1931   61.1356   40.9948 cn         1 CLA     -0.020900
     46 C4C        73.4146   59.0024   40.4633 cr         1 CLA     -0.044400
     47 C4D        74.7731   57.7319   36.5841 c6         1 CLA     -0.046000
     48 C5         82.9818   53.2765   34.5189 a2         1 CLA     -0.070400
     49 C6         83.9643   54.5459   34.4799 a2         1 CLA      0.043900
     50 C7         83.9326   55.1564   35.9512 a2         1 CLA     -0.150000
     51 C8         84.6691   56.4634   36.2041 a1         1 CLA      0.064200
     52 C9         85.9631   56.5859   35.4174 a3         1 CLA     -0.259300
     53 C10        84.8953   56.8494   37.7517 a2         1 CLA     -0.071900
     54 C11        83.6430   57.3814   38.4958 a2         1 CLA      0.014500
     55 C12        83.7566   57.2725   40.0292 a2         1 CLA     -0.112100
     56 C13        82.4898   57.8485   40.7900 a1         1 CLA      0.089200
     57 C14        82.3185   59.3619   40.5747 a3         1 CLA     -0.239100
     58 C15        82.4927   57.4862   42.3470 a2         1 CLA     -0.102200
     59 C16        83.6520   58.0305   43.2468 a2         1 CLA      0.023900
     60 C17        83.3710   57.7425   44.7179 a2         1 CLA     -0.105700
     61 C18        84.4305   58.0141   45.8203 a1         1 CLA      0.206800
     62 C19        84.6824   59.5561   46.0829 a3         1 CLA     -0.280100
     63 C20        84.1545   57.3666   47.1590 a3         1 CLA     -0.280100
     64 NC         74.6517   59.5463   40.4100 nx         1 CLA     -0.309200
     65 MG         75.8831   59.5531   38.7141 mg         1 CLA      0.895000
     66 HMD3       71.3094   55.8269   38.0449 dc         1 CLA      0.064300
     67 HMD2       70.5194   57.1901   37.2595 dc         1 CLA      0.064300
     68 HMD1       71.1378   55.7948   36.2436 dc         1 CLA      0.064300
     69 HMC3       72.9106   60.6076   44.1812 dc         1 CLA      0.052100
     70 HMC2       73.9010   59.2765   44.6498 dc         1 CLA      0.052100
     71 HMC1       74.6626   60.7398   44.0865 dc         1 CLA      0.052100
     72 HMB3       80.7262   62.9737   39.1628 dc         1 CLA      0.063600
     73 HMB2       80.7858   63.3616   40.8207 dc         1 CLA      0.063600
     74 HMB1       81.2542   61.8140   40.3851 dc         1 CLA      0.063600
     75 HMA3       80.4933   57.5964   36.4775 dc         1 CLA      0.058300
     76 HMA2       81.3241   58.6715   35.3116 dc         1 CLA      0.058300
     77 HMA1       81.1089   59.0521   37.1357 dc         1 CLA      0.058300
     78 HED3       76.0911   53.4180   32.6127 dc         1 CLA      0.079300
     79 HED2       77.4947   53.3185   33.7455 dc         1 CLA      0.079300
     80 HED1       76.1220   52.3315   34.1094 dc         1 CLA      0.079300
     81 HBC3       71.8815   56.3890   41.1713 dc         1 CLA      0.016300
     82 HBC2       73.0782   56.4352   42.4412 dc         1 CLA      0.016300
     83 HBC1       71.3575   55.9849   42.9177 dc         1 CLA      0.016300
     84 HBB2       79.9181   62.1869   44.4599 da         1 CLA      0.183000
     85 HBB1       80.4784   61.4364   42.8627 da         1 CLA      0.183000
     86 HBA2       79.0688   59.1899   31.7747 dc         1 CLA      0.029400
     87 HBA1       80.1589   59.2574   33.0620 dc         1 CLA      0.029400
     88 HAC2       71.6866   58.3000   43.4414 dc         1 CLA      0.029300
     89 HAC1       70.8048   58.4106   41.8742 dc         1 CLA      0.029300
     90 HAA2       77.3369   58.3056   33.2462 dc         1 CLA      0.028700
     91 HAA1       77.7982   59.9750   33.6303 dc         1 CLA      0.028700
     92 H203       85.0441   57.4482   47.8733 dc         1 CLA      0.065600
     93 H202       83.1431   57.7014   47.6043 dc         1 CLA      0.065600
     94 H201       84.0469   56.2735   46.9904 dc         1 CLA      0.065600
     95 H193       83.8738   59.9367   46.6994 dc         1 CLA      0.065600
     96 H192       85.6225   59.6834   46.6311 dc         1 CLA      0.065600
     97 H191       84.7727   60.1419   45.1605 dc         1 CLA      0.065600
     98 H172       82.4791   58.3573   44.9521 dc         1 CLA      0.027600
     99 H171       83.1574   56.6921   44.8018 dc         1 CLA      0.027600
    100 H162       84.5810   57.4632   43.1693 dc         1 CLA      0.002900
    101 H161       83.7934   59.0874   43.1482 dc         1 CLA      0.002900
    102 H152       81.5010   57.7785   42.7287 dc         1 CLA      0.029100
    103 H151       82.5544   56.3924   42.3765 dc         1 CLA      0.029100
    104 H143       82.1249   59.4759   39.5019 dc         1 CLA      0.063600
    105 H142       81.4880   59.8211   41.1473 dc         1 CLA      0.063600
    106 H141       83.2243   59.8943   40.9602 dc         1 CLA      0.063600
    107 H122       83.9637   56.2377   40.2506 dc         1 CLA      0.032500
    108 H121       84.6188   57.8197   40.3038 dc         1 CLA      0.032500
    109 H112       83.2369   58.3696   38.1644 dc         1 CLA      0.006600
    110 H111       82.7744   56.6818   38.3137 dc         1 CLA      0.006600
    111 H102       85.2652   55.9334   38.2233 dc         1 CLA      0.024100
    112 H101       85.6968   57.5380   37.8797 dc         1 CLA      0.024100
    113 HHD        71.8881   57.7613   39.6783 da         1 CLA      0.174300
    114 HHC        76.2392   61.1240   42.9849 da         1 CLA      0.136800
    115 HHB        80.0926   60.9949   37.7395 da         1 CLA      0.138300
    116 HBD        75.2337   57.4360   33.7067 dc         1 CLA      0.107700
    117 HAB        77.6839   62.7616   43.2718 da         1 CLA      0.155200
    118 H93        86.5494   55.7883   35.7559 dc         1 CLA      0.069500
    119 H92        85.6564   56.5116   34.3839 dc         1 CLA      0.069500
    120 H91        86.5277   57.4819   35.6573 dc         1 CLA      0.069500
    121 H8         84.1000   57.2690   35.7397 dc         1 CLA      0.029300
    122 H72        82.9783   55.4511   36.3334 dc         1 CLA      0.044400
    123 H71        84.5123   54.4414   36.5463 dc         1 CLA      0.044400
    124 H62        84.9043   54.1883   34.1298 dc         1 CLA      0.015600
    125 H61        83.5072   55.2639   33.7387 dc         1 CLA      0.015600
    126 H52        83.3192   52.5844   35.2878 dc         1 CLA      0.033200
    127 H51        82.9837   52.7445   33.6335 dc         1 CLA      0.033200
    128 H43        81.0566   51.2372   34.6717 dc         1 CLA      0.037000
    129 H42        80.8725   51.9629   36.2298 dc         1 CLA      0.037000
    130 H41        79.6284   52.3649   34.9910 dc         1 CLA      0.037000
    131 H3A        79.7422   60.2351   35.3339 dc         1 CLA      0.041100
    132 H2A        78.7583   57.3824   35.1224 dc         1 CLA      0.083100
    133 H2         80.8617   55.3348   35.4147 da         1 CLA      0.180900
    134 H18        85.3605   57.5517   45.5075 dc         1 CLA     -0.003900
    135 H13        81.5705   57.4031   40.3773 dc         1 CLA      0.019700
    136 H12        79.6688   54.7387   32.8966 dc         1 CLA      0.120400
    137 H11        81.3149   54.8561   32.4500 dc         1 CLA      0.120400
    138 C1         68.0179   61.3578   49.9340 Z1         2 LUT      0.509236
    139 C2         66.5740   61.2208   50.4173 Z2         2 LUT     -0.434695
    140 C3         65.7994   62.4247   50.7692 Z3         2 LUT      0.437453
    141 O3         66.0781   62.7894   52.1457 S1         2 LUT     -0.547129
    142 C4         66.2318   63.6193   49.9167 Z4         2 LUT     -0.468603
    143 C5         66.9780   63.3833   48.6698 Z5         2 LUT      0.279246
    144 C6         67.8921   62.3662   48.6941 Z6         2 LUT     -0.305473
    145 C7         68.5933   61.9103   47.4719 Z7         2 LUT      0.069402
    146 C8         69.5117   62.5975   46.6946 Z8         2 LUT     -0.191631
    147 C9         70.1640   62.1863   45.4140 Z9         2 LUT      0.196698
    148 C10        71.1056   63.0041   44.8778 Y1         2 LUT     -0.208611
    149 C11        71.7157   62.9285   43.5844 Y2         2 LUT      0.030784
    150 C12        72.8218   63.7003   43.2788 Y3         2 LUT     -0.220316
    151 C13        73.6193   63.7205   42.0317 Y4         2 LUT      0.215937
    152 C14        74.8469   64.4317   42.0692 Y5         2 LUT     -0.185793
    153 C15        75.8695   64.5126   41.0496 Y6         2 LUT     -0.057835
    154 C16        68.7344   59.9741   49.5275 Y7         2 LUT     -0.405615
    155 C17        68.8580   61.9366   51.0477 Y7         2 LUT     -0.405615
    156 C18        66.5451   64.1770   47.4628 Y9         2 LUT     -0.369639
    157 C19        69.8565   60.8585   44.8986 W1         2 LUT     -0.333362
    158 C20        73.0221   63.1213   40.8585 W2         2 LUT     -0.323439
    159 C21        87.5016   65.8038   35.0928 Z1         2 LUT      0.406104
    160 C22        88.1854   65.3317   33.7733 Z2         2 LUT     -0.404965
    161 C23        88.0025   66.4089   32.6838 Z3         2 LUT      0.391255
    162 O23        88.6533   65.9435   31.4714 S1         2 LUT     -0.528210
    163 C24        86.6227   66.8455   32.5350 W6         2 LUT     -0.258361
    164 C25        85.6495   66.8043   33.4638 Z5         2 LUT      0.133546
    165 C26        86.0110   66.0972   34.8049 W8         2 LUT     -0.147008
    166 C27        85.2391   66.6005   36.0732 Z7         2 LUT      0.023843
    167 C28        84.3678   65.8743   36.7106 Z8         2 LUT     -0.216987
    168 C29        83.7021   66.1032   37.9529 Z9         2 LUT      0.206524
    169 C30        82.3752   65.9311   38.0850 Y1         2 LUT     -0.215556
    170 C31        81.5444   65.8731   39.2550 Y2         2 LUT      0.025142
    171 C32        80.2488   65.6734   39.1938 Y3         2 LUT     -0.212209
    172 C33        79.4683   65.5863   40.4014 Y4         2 LUT      0.240937
    173 C34        78.1471   65.2078   40.3115 Y5         2 LUT     -0.218862
    174 C35        77.1487   65.1492   41.2617 Y6         2 LUT     -0.023547
    175 C36        88.3208   67.1091   35.6462 Y7         2 LUT     -0.393485
    176 C37        87.7302   64.5401   35.9867 Y7         2 LUT     -0.393485
    177 C38        84.2809   67.3330   33.2067 Y9         2 LUT     -0.387526
    178 C39        84.5802   66.6235   39.0514 W1         2 LUT     -0.322618
    179 C40        80.0212   66.1451   41.6691 W2         2 LUT     -0.358472
    180 H403       80.5488   67.1598   41.5486 R7         2 LUT      0.097720
    181 H402       79.2891   66.2522   42.4595 R7         2 LUT      0.097720
    182 H401       80.7884   65.4248   42.0037 R7         2 LUT      0.097720
    183 H393       85.6068   66.3234   38.9579 R4         2 LUT      0.082505
    184 H392       84.5735   67.7103   39.0649 R4         2 LUT      0.082505
    185 H391       84.2547   66.5038   40.0777 R4         2 LUT      0.082505
    186 H383       83.9865   67.2910   32.1410 R1         2 LUT      0.104030
    187 H382       83.5866   66.7420   33.7610 R1         2 LUT      0.104030
    188 H381       84.2216   68.3662   33.5710 R1         2 LUT      0.104030
    189 H373       87.1597   64.7963   36.9280 T4         2 LUT      0.089537
    190 H372       87.3016   63.5879   35.5422 T4         2 LUT      0.089537
    191 H371       88.7969   64.2929   36.3081 T4         2 LUT      0.089537
    192 H363       89.3870   67.0355   35.4318 T4         2 LUT      0.089537
    193 H362       87.9941   67.9644   35.1306 T4         2 LUT      0.089537
    194 H361       88.1662   67.2569   36.6602 T4         2 LUT      0.089537
    195 H222       89.2990   65.3139   33.9346 U2         2 LUT      0.127376
    196 H221       87.6548   64.3401   33.4995 U2         2 LUT      0.127376
    197 H203       73.6399   63.1288   39.9361 R7         2 LUT      0.087068
    198 H202       72.9395   62.0048   40.9116 R7         2 LUT      0.087068
    199 H201       71.9730   63.3559   40.5922 R7         2 LUT      0.087068
    200 H193       70.2420   60.1859   45.6720 R4         2 LUT      0.089716
    201 H192       68.8591   60.9072   44.5963 R4         2 LUT      0.089716
    202 H191       70.3040   60.7739   43.9300 R4         2 LUT      0.089716
    203 H183       66.9643   65.1841   47.5004 R1         2 LUT      0.094572
    204 H182       66.8122   63.7139   46.5301 R1         2 LUT      0.094572
    205 H181       65.4961   64.2837   47.4938 R1         2 LUT      0.094572
    206 H173       68.4349   62.8596   51.4634 T4         2 LUT      0.093752
    207 H172       68.7884   61.3421   51.9473 T4         2 LUT      0.093752
    208 H171       69.8597   62.2106   50.7179 T4         2 LUT      0.093752
    209 H163       69.6808   60.1374   48.9933 T4         2 LUT      0.093752
    210 H162       68.8629   59.3104   50.3464 T4         2 LUT      0.093752
    211 H161       68.2039   59.3498   48.7253 T4         2 LUT      0.093752
    212 HO3        65.6419   62.1895   52.8112 Q1         2 LUT      0.300121
    213 H8         69.8151   63.5510   47.0956 U7         2 LUT      0.080784
    214 H7         68.3822   60.9769   47.0283 U6         2 LUT      0.042190
    215 H42        65.3507   64.2890   49.7490 U5         2 LUT      0.145166
    216 H41        66.7960   64.2786   50.5546 U5         2 LUT      0.145166
    217 H35        77.3442   65.5561   42.2488 T3         2 LUT      0.077919
    218 H34        77.7915   64.9137   39.3053 T2         2 LUT      0.073626
    219 H32        79.7104   65.5064   38.2720 T1         2 LUT      0.092510
    220 H31        82.0739   66.0047   40.2669 U9         2 LUT      0.070048
    221 H30        81.8196   65.7043   37.2128 U8         2 LUT      0.085442
    222 H3         64.7830   62.2029   50.6883 U3         2 LUT     -0.031596
    223 H28        83.9352   65.0234   36.1860 U7         2 LUT      0.084728
    224 H27        85.6143   67.5440   36.3547 U6         2 LUT      0.087291
    225 H26        85.6813   65.0693   34.6020 Q6         2 LUT      0.075325
    226 H24        86.3319   67.2881   31.5781 Q5         2 LUT      0.094482
    227 H23        88.5290   67.2992   32.9853 U3         2 LUT     -0.024869
    228 H22        66.0601   60.9069   49.5281 U2         2 LUT      0.127376
    229 H21        66.4064   60.4564   51.1679 U2         2 LUT      0.127376
    230 H15        75.7204   64.0321   40.0933 T3         2 LUT      0.093200
    231 H14        75.1172   64.8411   43.0211 T2         2 LUT      0.068865
    232 H12        73.2246   64.2506   44.1793 T1         2 LUT      0.095507
    233 H11        71.3674   62.2049   42.8643 U9         2 LUT      0.068930
    234 H10        71.3213   63.8452   45.4609 U8         2 LUT      0.083911
    235 H1         88.0829   65.3090   31.0414 Q1         2 LUT      0.297311
@<TRIPOS>BOND
    1     6     1 1
    2     7     2 1
    3     8     3 1
    4     9     4 1
    5    11     4 1
    6    12     6 1
    7    13     9 1
    8    16     9 1
    9    25     5 1
   10    25    16 1
   11    26    10 1
   12    26    17 1
   13    27    18 1
   14    28    14 1
   15    28    19 1
   16    29    12 1
   17    30    13 1
   18    31    24 1
   19    32     1 1
   20    32    25 1
   21    33    21 1
   22    33    26 1
   23    34    22 1
   24    34    27 1
   25    35    23 1
   26    35    28 1
   27    36    12 1
   28    36    24 1
   29    37    13 1
   30    37    15 1
   31    38    31 1
   32    39    20 1
   33    39    32 1
   34    40     2 1
   35    40    33 1
   36    41     3 1
   37    41    34 1
   38    42     4 1
   39    42    35 1
   40    43    38 1
   41    44     5 1
   42    44    17 1
   43    44    39 1
   44    45    10 1
   45    45    18 1
   46    45    40 1
   47    46    19 1
   48    46    41 1
   49    47    14 1
   50    47    16 1
   51    47    42 1
   52    48    38 1
   53    49    48 1
   54    50    49 1
   55    51    50 1
   56    52    51 1
   57    53    51 1
   58    54    53 1
   59    55    54 1
   60    56    55 1
   61    57    56 1
   62    58    56 1
   63    59    58 1
   64    60    59 1
   65    61    60 1
   66    62    61 1
   67    63    61 1
   68    64    27 1
   69    64    46 1
   70    65     5 1
   71    65    10 1
   72    65    64 1
   73    65    14 1
   74    66    23 1
   75    67    23 1
   76    68    23 1
   77    69    22 1
   78    70    22 1
   79    71    22 1
   80    72    21 1
   81    73    21 1
   82    74    21 1
   83    75    20 1
   84    76    20 1
   85    77    20 1
   86    78    15 1
   87    79    15 1
   88    80    15 1
   89    81     8 1
   90    82     8 1
   91    83     8 1
   92    84     7 1
   93    85     7 1
   94    86     6 1
   95    87     6 1
   96    88     3 1
   97    89     3 1
   98    90     1 1
   99    91     1 1
  100    92    63 1
  101    93    63 1
  102    94    63 1
  103    95    62 1
  104    96    62 1
  105    97    62 1
  106    98    60 1
  107    99    60 1
  108   100    59 1
  109   101    59 1
  110   102    58 1
  111   103    58 1
  112   104    57 1
  113   105    57 1
  114   106    57 1
  115   107    55 1
  116   108    55 1
  117   109    54 1
  118   110    54 1
  119   111    53 1
  120   112    53 1
  121   113    19 1
  122   114    18 1
  123   115    17 1
  124   116     9 1
  125   117     2 1
  126   118    52 1
  127   119    52 1
  128   120    52 1
  129   121    51 1
  130   122    50 1
  131   123    50 1
  132   124    49 1
  133   125    49 1
  134   126    48 1
  135   127    48 1
  136   128    43 1
  137   129    43 1
  138   130    43 1
  139   131    39 1
  140   132    32 1
  141   133    31 1
  142   134    61 1
  143   135    56 1
  144   136    24 1
  145   137    24 1
  146   139   138 1
  147   140   139 1
  148   141   140 1
  149   142   140 1
  150   143   142 1
  151   144   138 1
  152   144   143 1
  153   145   144 1
  154   146   145 1
  155   147   146 1
  156   148   147 1
  157   149   148 1
  158   150   149 1
  159   151   150 1
  160   152   151 1
  161   153   152 1
  162   154   138 1
  163   155   138 1
  164   156   143 1
  165   157   147 1
  166   158   151 1
  167   160   159 1
  168   161   160 1
  169   162   161 1
  170   163   161 1
  171   164   163 1
  172   165   159 1
  173   165   164 1
  174   166   165 1
  175   167   166 1
  176   168   167 1
  177   169   168 1
  178   170   169 1
  179   171   170 1
  180   172   171 1
  181   173   172 1
  182   174   153 1
  183   174   173 1
  184   175   159 1
  185   176   159 1
  186   177   164 1
  187   178   168 1
  188   179   172 1
  189   180   179 1
  190   181   179 1
  191   182   179 1
  192   183   178 1
  193   184   178 1
  194   185   178 1
  195   186   177 1
  196   187   177 1
  197   188   177 1
  198   189   176 1
  199   190   176 1
  200   191   176 1
  201   192   175 1
  202   193   175 1
  203   194   175 1
  204   195   160 1
  205   196   160 1
  206   197   158 1
  207   198   158 1
  208   199   158 1
  209   200   157 1
  210   201   157 1
  211   202   157 1
  212   203   156 1
  213   204   156 1
  214   205   156 1
  215   206   155 1
  216   207   155 1
  217   208   155 1
  218   209   154 1
  219   210   154 1
  220   211   154 1
  221   212   141 1
  222   213   146 1
  223   214   145 1
  224   215   142 1
  225   216   142 1
  226   217   174 1
  227   218   173 1
  228   219   171 1
  229   220   170 1
  230   221   169 1
  231   222   140 1
  232   223   167 1
  233   224   166 1
  234   225   165 1
  235   226   163 1
  236   227   161 1
  237   228   139 1
  238   229   139 1
  239   230   153 1
  240   231   152 1
  241   232   150 1
  242   233   149 1
  243   234   148 1
  244   235   162 1
  245   65    153 1
  246   65    174 1
@<TRIPOS>SUBSTRUCTURE
      1 CLA               1 ****               0 ****  **** 
      2 LUT             138 ****               0 ****  **** 
