@<TRIPOS>MOLECULE
Cpptraj generated mol2 file.
  235   246     2     0     0
SMALL
USER_CHARGES


@<TRIPOS>ATOM
      1 CAA        77.8907   59.0908   33.8352 a2         1 CLA     -0.055900
      2 CAB        78.1758   62.8160   42.6361 c8         1 CLA     -0.148500
      3 CAC        71.6798   58.1178   42.5823 a2         1 CLA     -0.012600
      4 CAD        74.0508   56.0308   35.1018 ck         1 CLA      0.398800
      5 NA         77.0669   59.1336   37.2134 ns         1 CLA     -0.225500
      6 CBA        79.1497   59.2221   32.9878 a2         1 CLA     -0.135000
      7 CBB        79.3036   63.0038   43.3659 c0         1 CLA     -0.395200
      8 CBC        72.0363   56.6654   42.8511 a3         1 CLA     -0.037700
      9 CBD        75.4364   56.6864   34.6835 a1         1 CLA     -0.053900
     10 NB         77.1646   60.4777   39.9223 nm         1 CLA     -0.295700
     11 OBD        73.4904   55.1690   34.4186 o2         1 CLA     -0.494600
     12 CGA        79.9021   57.8442   32.6674 c4         1 CLA      0.827000
     13 CGD        76.3534   55.5839   34.4345 c4         1 CLA      0.655300
     14 ND         74.4252   58.2056   37.9419 nm         1 CLA     -0.291600
     15 CED        77.0887   53.4444   35.2274 a3         1 CLA      0.005400
     16 CHA        75.7997   57.5914   35.8559 cs         1 CLA     -0.123800
     17 CHB        78.8427   60.5838   38.1637 aa         1 CLA     -0.291900
     18 CHC        75.8402   60.8183   41.9074 aa         1 CLA     -0.090400
     19 CHD        72.8144   57.6681   39.6436 aa         1 CLA     -0.052000
     20 CMA        80.3490   58.4108   36.7218 a3         1 CLA     -0.230700
     21 CMB        80.3392   62.4362   40.1657 a3         1 CLA     -0.180800
     22 CMC        73.4425   60.3029   43.8810 a3         1 CLA     -0.134000
     23 CMD        71.3322   55.9335   37.4157 a3         1 CLA     -0.141100
     24 C1         81.0162   55.9649   33.4556 a2         1 CLA      0.023000
     25 C1A        76.8885   58.3490   36.1005 ac         1 CLA     -0.015100
     26 C1B        78.3611   60.8812   39.3897 cr         1 CLA      0.054700
     27 C1C        74.7344   60.0871   41.5772 cn         1 CLA     -0.005600
     28 C1D        73.2287   57.4976   38.3769 ap         1 CLA     -0.047300
     29 O1A        79.8511   57.2257   31.6318 o2         1 CLA     -0.610800
     30 O1D        77.1047   55.4500   33.4658 o2         1 CLA     -0.558200
     31 C2         81.5979   55.3384   34.7202 c8         1 CLA     -0.325100
     32 C2A        78.1106   58.3621   35.2325 a1         1 CLA      0.098600
     33 C2B        78.9895   61.7612   40.3695 cb         1 CLA      0.088500
     34 C2C        73.6140   59.7969   42.4759 cb         1 CLA      0.053700
     35 C2D        72.6999   56.6742   37.3193 cb         1 CLA      0.058900
     36 O2A        80.6047   57.3043   33.7396 o1         1 CLA     -0.437200
     37 O2D        76.2668   54.6249   35.4669 o1         1 CLA     -0.357600
     38 C3         82.0899   54.0876   34.8593 c5         1 CLA      0.031200
     39 C3A        79.1366   59.1638   36.1136 a1         1 CLA      0.166800
     40 C3B        78.0825   61.9157   41.4242 cb         1 CLA      0.035000
     41 C3C        72.8404   58.8105   41.9084 cb         1 CLA     -0.089900
     42 C3D        73.6969   56.6498   36.3422 cb         1 CLA     -0.035900
     43 C4         81.0868   52.9297   34.9659 a3         1 CLA     -0.053300
     44 C4A        78.2967   59.6808   37.2397 ac         1 CLA      0.001800
     45 C4B        76.9697   61.0356   41.1032 cn         1 CLA     -0.020900
     46 C4C        73.3990   58.5698   40.5932 cr         1 CLA     -0.044400
     47 C4D        74.7029   57.6446   36.7244 c6         1 CLA     -0.046000
     48 C5         83.5441   53.6808   34.6998 a2         1 CLA     -0.070400
     49 C6         84.6793   54.7031   35.1397 a2         1 CLA      0.043900
     50 C7         84.7915   54.7543   36.6813 a2         1 CLA     -0.150000
     51 C8         85.1260   56.1961   37.1793 a1         1 CLA      0.064200
     52 C9         86.5530   56.6431   36.7637 a3         1 CLA     -0.259300
     53 C10        84.9539   56.5175   38.7251 a2         1 CLA     -0.071900
     54 C11        83.4289   56.5606   39.1616 a2         1 CLA      0.014500
     55 C12        83.3787   56.8346   40.6557 a2         1 CLA     -0.112100
     56 C13        81.9288   57.0659   41.3254 a1         1 CLA      0.089200
     57 C14        81.3298   58.5675   40.8763 a3         1 CLA     -0.239100
     58 C15        81.9602   56.9894   42.8768 a2         1 CLA     -0.102200
     59 C16        82.8005   58.1553   43.5801 a2         1 CLA      0.023900
     60 C17        82.5723   58.2399   45.0918 a2         1 CLA     -0.105700
     61 C18        83.3523   59.3803   45.7365 a1         1 CLA      0.206800
     62 C19        82.8523   60.7807   45.3024 a3         1 CLA     -0.280100
     63 C20        83.3225   59.2215   47.3129 a3         1 CLA     -0.280100
     64 NC         74.5382   59.3805   40.4575 nx         1 CLA     -0.309200
     65 MG         75.6857   59.4721   38.8317 mg         1 CLA      0.895000
     66 HMD3       70.6387   56.6966   37.4110 dc         1 CLA      0.064300
     67 HMD2       71.0487   55.2341   36.7046 dc         1 CLA      0.064300
     68 HMD1       71.2351   55.3985   38.3429 dc         1 CLA      0.064300
     69 HMC3       74.1608   59.8150   44.5262 dc         1 CLA      0.052100
     70 HMC2       73.9360   61.2569   43.8276 dc         1 CLA      0.052100
     71 HMC1       72.4137   60.3230   44.3089 dc         1 CLA      0.052100
     72 HMB3       80.7288   62.2415   39.2172 dc         1 CLA      0.063600
     73 HMB2       80.3037   63.4745   40.3645 dc         1 CLA      0.063600
     74 HMB1       81.0280   62.1170   40.9120 dc         1 CLA      0.063600
     75 HMA3       79.9405   57.5705   37.2656 dc         1 CLA      0.058300
     76 HMA2       81.0407   58.2836   35.8766 dc         1 CLA      0.058300
     77 HMA1       80.8678   58.9728   37.5068 dc         1 CLA      0.058300
     78 HED3       77.1234   52.8386   36.1437 dc         1 CLA      0.079300
     79 HED2       76.6122   52.8560   34.4204 dc         1 CLA      0.079300
     80 HED1       78.0762   53.6320   34.8853 dc         1 CLA      0.079300
     81 HBC3       71.3006   56.0308   43.3513 dc         1 CLA      0.016300
     82 HBC2       72.3878   56.1486   41.9986 dc         1 CLA      0.016300
     83 HBC1       72.8814   56.7352   43.6421 dc         1 CLA      0.016300
     84 HBB2       79.2075   63.6264   44.2239 da         1 CLA      0.183000
     85 HBB1       80.3240   62.6121   43.2320 da         1 CLA      0.183000
     86 HBA2       78.8459   59.5814   32.0259 dc         1 CLA      0.029400
     87 HBA1       79.9247   59.9023   33.4342 dc         1 CLA      0.029400
     88 HAC2       71.3895   58.5278   43.6062 dc         1 CLA      0.029300
     89 HAC1       70.8131   58.0176   41.9090 dc         1 CLA      0.029300
     90 HAA2       77.1449   58.4948   33.2745 dc         1 CLA      0.028700
     91 HAA1       77.5303   60.0697   34.1065 dc         1 CLA      0.028700
     92 H203       83.7686   60.0726   47.7693 dc         1 CLA      0.065600
     93 H202       82.2964   59.1481   47.6768 dc         1 CLA      0.065600
     94 H201       83.7837   58.2812   47.5453 dc         1 CLA      0.065600
     95 H193       81.7767   60.8655   45.4697 dc         1 CLA      0.065600
     96 H192       83.3592   61.6057   45.8529 dc         1 CLA      0.065600
     97 H191       83.0148   60.9569   44.2328 dc         1 CLA      0.065600
     98 H172       81.5750   58.5671   45.3700 dc         1 CLA      0.027600
     99 H171       82.6334   57.2099   45.5146 dc         1 CLA      0.027600
    100 H162       83.8701   57.8662   43.5186 dc         1 CLA      0.002900
    101 H161       82.5863   59.1322   43.0998 dc         1 CLA      0.002900
    102 H152       80.9791   57.0766   43.3109 dc         1 CLA      0.029100
    103 H151       82.4820   56.0772   43.1848 dc         1 CLA      0.029100
    104 H143       81.9817   59.4226   41.1235 dc         1 CLA      0.063600
    105 H142       81.0289   58.6497   39.7788 dc         1 CLA      0.063600
    106 H141       80.3152   58.7237   41.3433 dc         1 CLA      0.063600
    107 H122       83.9907   56.0078   41.2239 dc         1 CLA      0.032500
    108 H121       83.8932   57.8144   40.7699 dc         1 CLA      0.032500
    109 H112       82.9147   57.2958   38.5597 dc         1 CLA      0.006600
    110 H111       83.0856   55.5526   38.8578 dc         1 CLA      0.006600
    111 H102       85.4011   55.7044   39.2845 dc         1 CLA      0.024100
    112 H101       85.4408   57.4501   39.0608 dc         1 CLA      0.024100
    113 HHD        71.9955   57.0954   39.9671 da         1 CLA      0.174300
    114 HHC        75.8128   61.3057   42.8888 da         1 CLA      0.136800
    115 HHB        79.7504   61.0133   37.8424 da         1 CLA      0.138300
    116 HBD        75.4559   57.2798   33.8094 dc         1 CLA      0.107700
    117 HAB        77.1983   63.3376   42.9420 da         1 CLA      0.155200
    118 H93        87.2522   55.9228   37.1030 dc         1 CLA      0.069500
    119 H92        86.5838   56.6718   35.7005 dc         1 CLA      0.069500
    120 H91        86.7841   57.6510   37.2492 dc         1 CLA      0.069500
    121 H8         84.4277   56.8843   36.6602 dc         1 CLA      0.029300
    122 H72        83.7702   54.5646   37.0003 dc         1 CLA      0.044400
    123 H71        85.5185   54.1377   37.1204 dc         1 CLA      0.044400
    124 H62        85.6628   54.5279   34.6735 dc         1 CLA      0.015600
    125 H61        84.3557   55.6439   34.6936 dc         1 CLA      0.015600
    126 H52        83.7798   52.6760   35.1694 dc         1 CLA      0.033200
    127 H51        83.6571   53.5603   33.6082 dc         1 CLA      0.033200
    128 H43        81.0489   52.3462   34.0117 dc         1 CLA      0.037000
    129 H42        81.5254   52.2214   35.7867 dc         1 CLA      0.037000
    130 H41        80.0790   53.1934   35.2276 dc         1 CLA      0.037000
    131 H3A        79.5556   59.9978   35.6233 dc         1 CLA      0.041100
    132 H2A        78.4699   57.3248   35.1406 dc         1 CLA      0.083100
    133 H2         81.5623   55.9595   35.5877 da         1 CLA      0.180900
    134 H18        84.4424   59.4546   45.5103 dc         1 CLA     -0.003900
    135 H13        81.2634   56.3759   40.7714 dc         1 CLA      0.019700
    136 H12        80.2133   55.3296   33.2192 dc         1 CLA      0.120400
    137 H11        81.6552   55.9661   32.6221 dc         1 CLA      0.120400
    138 C1         67.9255   61.6828   49.5666 Z1         2 LUT      0.509236
    139 C2         66.6682   61.7264   50.4020 Z2         2 LUT     -0.434695
    140 C3         66.1329   63.0525   50.9900 Z3         2 LUT      0.437453
    141 O3         66.8564   63.4845   52.1513 S1         2 LUT     -0.547129
    142 C4         66.2521   64.1186   49.8851 Z4         2 LUT     -0.468603
    143 C5         66.8811   63.7176   48.5756 Z5         2 LUT      0.279246
    144 C6         67.6334   62.5790   48.4085 Z6         2 LUT     -0.305473
    145 C7         68.1974   62.1511   47.0658 Z7         2 LUT      0.069402
    146 C8         69.2112   62.7421   46.3908 Z8         2 LUT     -0.191631
    147 C9         69.7880   62.4311   45.0318 Z9         2 LUT      0.196698
    148 C10        70.7660   63.3171   44.5311 Y1         2 LUT     -0.208611
    149 C11        71.5539   63.1523   43.2964 Y2         2 LUT      0.030784
    150 C12        72.5416   64.0657   42.9840 Y3         2 LUT     -0.220316
    151 C13        73.4816   63.8910   41.9418 Y4         2 LUT      0.215937
    152 C14        74.6102   64.6398   41.8300 Y5         2 LUT     -0.185793
    153 C15        75.8095   64.5856   40.9542 Y6         2 LUT     -0.057835
    154 C16        68.4419   60.2354   49.3121 Y7         2 LUT     -0.405615
    155 C17        69.0371   62.3259   50.3479 Y7         2 LUT     -0.405615
    156 C18        66.5236   64.6838   47.4821 Y9         2 LUT     -0.369639
    157 C19        69.2345   61.2843   44.2714 W1         2 LUT     -0.333362
    158 C20        73.1159   63.0208   40.7978 W2         2 LUT     -0.323439
    159 C21        87.1361   65.9093   35.1690 Z1         2 LUT      0.406104
    160 C22        87.9386   65.4723   33.9237 Z2         2 LUT     -0.404965
    161 C23        88.1059   66.4099   32.7766 Z3         2 LUT      0.391255
    162 O23        88.5696   65.5916   31.7299 S1         2 LUT     -0.528210
    163 C24        86.8020   67.1621   32.5058 W6         2 LUT     -0.258361
    164 C25        85.7957   67.2026   33.3060 Z5         2 LUT      0.133546
    165 C26        85.7875   66.2838   34.6485 W8         2 LUT     -0.147008
    166 C27        84.9509   66.9596   35.7079 Z7         2 LUT      0.023843
    167 C28        83.6871   66.7093   36.1604 Z8         2 LUT     -0.216987
    168 C29        83.2139   67.0378   37.4615 Z9         2 LUT      0.206524
    169 C30        82.0304   66.4776   37.8366 Y1         2 LUT     -0.215556
    170 C31        81.3728   66.5802   39.0747 Y2         2 LUT      0.025142
    171 C32        80.1238   66.0196   39.2169 Y3         2 LUT     -0.212209
    172 C33        79.1562   66.0503   40.2999 Y4         2 LUT      0.240937
    173 C34        77.9210   65.3062   40.1090 Y5         2 LUT     -0.218862
    174 C35        76.8283   65.4122   41.0078 Y6         2 LUT     -0.023547
    175 C36        87.9649   67.0118   35.8880 Y7         2 LUT     -0.393485
    176 C37        87.0476   64.6969   36.1024 Y7         2 LUT     -0.393485
    177 C38        84.5579   68.1022   33.0495 Y9         2 LUT     -0.387526
    178 C39        84.0660   67.9037   38.3865 W1         2 LUT     -0.322618
    179 C40        79.6286   66.8163   41.5425 W2         2 LUT     -0.358472
    180 H403       79.0396   67.7806   41.6059 R7         2 LUT      0.097720
    181 H402       79.3398   66.1852   42.3763 R7         2 LUT      0.097720
    182 H401       80.7168   66.9518   41.4795 R7         2 LUT      0.097720
    183 H393       84.0015   68.9489   38.2269 R4         2 LUT      0.082505
    184 H392       83.8146   67.7999   39.4308 R4         2 LUT      0.082505
    185 H391       85.1050   67.6572   38.3127 R4         2 LUT      0.082505
    186 H383       84.5139   68.8931   33.7520 R1         2 LUT      0.104030
    187 H382       84.5624   68.5423   32.0394 R1         2 LUT      0.104030
    188 H381       83.6790   67.5821   33.1085 R1         2 LUT      0.104030
    189 H373       86.7083   64.9382   37.0833 T4         2 LUT      0.089537
    190 H372       86.3876   63.8683   35.7703 T4         2 LUT      0.089537
    191 H371       88.0474   64.1246   36.2561 T4         2 LUT      0.089537
    192 H363       87.5537   67.2102   36.8938 T4         2 LUT      0.089537
    193 H362       88.9534   66.7091   35.8661 T4         2 LUT      0.089537
    194 H361       87.8138   67.9175   35.2705 T4         2 LUT      0.089537
    195 H222       88.9044   65.1321   34.1363 U2         2 LUT      0.127376
    196 H221       87.4133   64.5923   33.5197 U2         2 LUT      0.127376
    197 H203       72.7427   63.5385   39.9342 R7         2 LUT      0.087068
    198 H202       73.9538   62.4239   40.4409 R7         2 LUT      0.087068
    199 H201       72.3626   62.2642   40.9502 R7         2 LUT      0.087068
    200 H193       69.7509   60.3541   44.5162 R4         2 LUT      0.089716
    201 H192       68.1548   61.2224   44.3328 R4         2 LUT      0.089716
    202 H191       69.3884   61.4443   43.2072 R4         2 LUT      0.089716
    203 H183       65.6000   65.1396   47.7241 R1         2 LUT      0.094572
    204 H182       67.3002   65.4051   47.3320 R1         2 LUT      0.094572
    205 H181       66.2647   64.1707   46.6432 R1         2 LUT      0.094572
    206 H173       69.9796   62.1354   49.8250 T4         2 LUT      0.093752
    207 H172       68.9080   63.4080   50.4696 T4         2 LUT      0.093752
    208 H171       69.1025   61.8787   51.2627 T4         2 LUT      0.093752
    209 H163       69.2979   60.1395   48.6073 T4         2 LUT      0.093752
    210 H162       68.7250   59.7405   50.2575 T4         2 LUT      0.093752
    211 H161       67.7351   59.5950   48.7427 T4         2 LUT      0.093752
    212 HO3        66.6209   62.8675   52.8549 Q1         2 LUT      0.300121
    213 H8         69.5719   63.6340   46.9015 U7         2 LUT      0.080784
    214 H7         67.5942   61.3185   46.6451 U6         2 LUT      0.042190
    215 H42        65.1744   64.4255   49.6872 U5         2 LUT      0.145166
    216 H41        66.7827   65.0248   50.2267 U5         2 LUT      0.145166
    217 H35        76.7747   66.2063   41.7301 T3         2 LUT      0.077919
    218 H34        77.8436   64.6375   39.3067 T2         2 LUT      0.073626
    219 H32        79.8171   65.4838   38.3666 T1         2 LUT      0.092510
    220 H31        81.7657   67.2761   39.8311 U9         2 LUT      0.070048
    221 H30        81.5329   65.9452   37.0583 U8         2 LUT      0.085442
    222 H3         65.0271   62.8996   51.2119 U3         2 LUT     -0.031596
    223 H28        83.1796   65.9489   35.6304 U7         2 LUT      0.084728
    224 H27        85.5462   67.6322   36.3619 U6         2 LUT      0.087291
    225 H26        85.2036   65.3416   34.4817 Q6         2 LUT      0.075325
    226 H24        86.8623   67.6415   31.5084 Q5         2 LUT      0.094482
    227 H23        88.8440   67.1957   32.9992 U3         2 LUT     -0.024869
    228 H22        65.8411   61.3654   49.7271 U2         2 LUT      0.127376
    229 H21        66.7514   60.9985   51.2237 U2         2 LUT      0.127376
    230 H15        75.8959   63.9206   40.1310 T3         2 LUT      0.093200
    231 H14        74.6051   65.5033   42.5611 T2         2 LUT      0.068865
    232 H12        72.8082   64.7751   43.7457 T1         2 LUT      0.095507
    233 H11        71.4227   62.2559   42.7272 U9         2 LUT      0.068930
    234 H10        71.1037   64.0472   45.1786 U8         2 LUT      0.083911
    235 H1         89.1417   66.0668   31.0485 Q1         2 LUT      0.297311
@<TRIPOS>BOND
    1     6     1 1
    2     7     2 1
    3     8     3 1
    4     9     4 1
    5    11     4 1
    6    12     6 1
    7    13     9 1
    8    16     9 1
    9    25     5 1
   10    25    16 1
   11    26    10 1
   12    26    17 1
   13    27    18 1
   14    28    14 1
   15    28    19 1
   16    29    12 1
   17    30    13 1
   18    31    24 1
   19    32     1 1
   20    32    25 1
   21    33    21 1
   22    33    26 1
   23    34    22 1
   24    34    27 1
   25    35    23 1
   26    35    28 1
   27    36    12 1
   28    36    24 1
   29    37    13 1
   30    37    15 1
   31    38    31 1
   32    39    20 1
   33    39    32 1
   34    40     2 1
   35    40    33 1
   36    41     3 1
   37    41    34 1
   38    42     4 1
   39    42    35 1
   40    43    38 1
   41    44     5 1
   42    44    17 1
   43    44    39 1
   44    45    10 1
   45    45    18 1
   46    45    40 1
   47    46    19 1
   48    46    41 1
   49    47    14 1
   50    47    16 1
   51    47    42 1
   52    48    38 1
   53    49    48 1
   54    50    49 1
   55    51    50 1
   56    52    51 1
   57    53    51 1
   58    54    53 1
   59    55    54 1
   60    56    55 1
   61    57    56 1
   62    58    56 1
   63    59    58 1
   64    60    59 1
   65    61    60 1
   66    62    61 1
   67    63    61 1
   68    64    27 1
   69    64    46 1
   70    65     5 1
   71    65    10 1
   72    65    64 1
   73    65    14 1
   74    66    23 1
   75    67    23 1
   76    68    23 1
   77    69    22 1
   78    70    22 1
   79    71    22 1
   80    72    21 1
   81    73    21 1
   82    74    21 1
   83    75    20 1
   84    76    20 1
   85    77    20 1
   86    78    15 1
   87    79    15 1
   88    80    15 1
   89    81     8 1
   90    82     8 1
   91    83     8 1
   92    84     7 1
   93    85     7 1
   94    86     6 1
   95    87     6 1
   96    88     3 1
   97    89     3 1
   98    90     1 1
   99    91     1 1
  100    92    63 1
  101    93    63 1
  102    94    63 1
  103    95    62 1
  104    96    62 1
  105    97    62 1
  106    98    60 1
  107    99    60 1
  108   100    59 1
  109   101    59 1
  110   102    58 1
  111   103    58 1
  112   104    57 1
  113   105    57 1
  114   106    57 1
  115   107    55 1
  116   108    55 1
  117   109    54 1
  118   110    54 1
  119   111    53 1
  120   112    53 1
  121   113    19 1
  122   114    18 1
  123   115    17 1
  124   116     9 1
  125   117     2 1
  126   118    52 1
  127   119    52 1
  128   120    52 1
  129   121    51 1
  130   122    50 1
  131   123    50 1
  132   124    49 1
  133   125    49 1
  134   126    48 1
  135   127    48 1
  136   128    43 1
  137   129    43 1
  138   130    43 1
  139   131    39 1
  140   132    32 1
  141   133    31 1
  142   134    61 1
  143   135    56 1
  144   136    24 1
  145   137    24 1
  146   139   138 1
  147   140   139 1
  148   141   140 1
  149   142   140 1
  150   143   142 1
  151   144   138 1
  152   144   143 1
  153   145   144 1
  154   146   145 1
  155   147   146 1
  156   148   147 1
  157   149   148 1
  158   150   149 1
  159   151   150 1
  160   152   151 1
  161   153   152 1
  162   154   138 1
  163   155   138 1
  164   156   143 1
  165   157   147 1
  166   158   151 1
  167   160   159 1
  168   161   160 1
  169   162   161 1
  170   163   161 1
  171   164   163 1
  172   165   159 1
  173   165   164 1
  174   166   165 1
  175   167   166 1
  176   168   167 1
  177   169   168 1
  178   170   169 1
  179   171   170 1
  180   172   171 1
  181   173   172 1
  182   174   153 1
  183   174   173 1
  184   175   159 1
  185   176   159 1
  186   177   164 1
  187   178   168 1
  188   179   172 1
  189   180   179 1
  190   181   179 1
  191   182   179 1
  192   183   178 1
  193   184   178 1
  194   185   178 1
  195   186   177 1
  196   187   177 1
  197   188   177 1
  198   189   176 1
  199   190   176 1
  200   191   176 1
  201   192   175 1
  202   193   175 1
  203   194   175 1
  204   195   160 1
  205   196   160 1
  206   197   158 1
  207   198   158 1
  208   199   158 1
  209   200   157 1
  210   201   157 1
  211   202   157 1
  212   203   156 1
  213   204   156 1
  214   205   156 1
  215   206   155 1
  216   207   155 1
  217   208   155 1
  218   209   154 1
  219   210   154 1
  220   211   154 1
  221   212   141 1
  222   213   146 1
  223   214   145 1
  224   215   142 1
  225   216   142 1
  226   217   174 1
  227   218   173 1
  228   219   171 1
  229   220   170 1
  230   221   169 1
  231   222   140 1
  232   223   167 1
  233   224   166 1
  234   225   165 1
  235   226   163 1
  236   227   161 1
  237   228   139 1
  238   229   139 1
  239   230   153 1
  240   231   152 1
  241   232   150 1
  242   233   149 1
  243   234   148 1
  244   235   162 1
  245   65    153 1
  246   65    174 1
@<TRIPOS>SUBSTRUCTURE
      1 CLA               1 ****               0 ****  **** 
      2 LUT             138 ****               0 ****  **** 
