@<TRIPOS>MOLECULE
Cpptraj generated mol2 file.
  235   246     2     0     0
SMALL
USER_CHARGES


@<TRIPOS>ATOM
      1 CAA        78.6398   57.9094   35.5208 a2         1 CLA     -0.055900
      2 CAB        78.0867   61.8506   44.4297 c8         1 CLA     -0.148500
      3 CAC        71.2970   57.6393   43.6685 a2         1 CLA     -0.012600
      4 CAD        74.3626   55.4741   36.3750 ck         1 CLA      0.398800
      5 NA         77.4424   58.4106   38.7958 ns         1 CLA     -0.225500
      6 CBA        80.0173   57.8444   34.8371 a2         1 CLA     -0.135000
      7 CBB        79.1326   62.0249   45.1845 c0         1 CLA     -0.395200
      8 CBC        71.1461   56.1595   43.9011 a3         1 CLA     -0.037700
      9 CBD        75.8449   55.9292   36.1766 a1         1 CLA     -0.053900
     10 NB         77.0769   59.9679   41.3856 nm         1 CLA     -0.295700
     11 OBD        73.8041   54.6276   35.6800 o2         1 CLA     -0.494600
     12 CGA        80.5540   56.4702   34.4947 c4         1 CLA      0.827000
     13 CGD        76.7949   54.6857   36.3125 c4         1 CLA      0.655300
     14 ND         74.6841   57.4350   39.3243 nm         1 CLA     -0.291600
     15 CED        78.2316   53.5128   37.8266 a3         1 CLA      0.005400
     16 CHA        76.1789   56.9438   37.3563 cs         1 CLA     -0.123800
     17 CHB        79.1409   59.8157   39.9383 aa         1 CLA     -0.291900
     18 CHC        75.6397   60.2226   43.3615 aa         1 CLA     -0.090400
     19 CHD        72.7824   57.2538   40.8616 aa         1 CLA     -0.052000
     20 CMA        80.8758   57.4764   38.4296 a3         1 CLA     -0.230700
     21 CMB        80.3512   61.5551   42.2157 a3         1 CLA     -0.180800
     22 CMC        73.0632   59.4941   45.2228 a3         1 CLA     -0.134000
     23 CMD        71.6420   55.3256   38.4481 a3         1 CLA     -0.141100
     24 C1         81.6083   54.3678   35.2860 a2         1 CLA      0.023000
     25 C1A        77.4208   57.6160   37.7268 ac         1 CLA     -0.015100
     26 C1B        78.4086   60.3968   41.0510 cr         1 CLA      0.054700
     27 C1C        74.5069   59.4878   42.9770 cn         1 CLA     -0.005600
     28 C1D        73.4054   56.9376   39.6484 ap         1 CLA     -0.047300
     29 O1A        80.4753   56.0024   33.3721 o2         1 CLA     -0.610800
     30 O1D        77.4537   54.1777   35.4198 o2         1 CLA     -0.558200
     31 C2         82.1047   53.8530   36.6104 c8         1 CLA     -0.325100
     32 C2A        78.7567   57.5479   37.0179 a1         1 CLA      0.098600
     33 C2B        78.9566   61.2011   42.1004 cb         1 CLA      0.088500
     34 C2C        73.4232   59.1338   43.8507 cb         1 CLA      0.053700
     35 C2D        72.9051   56.1526   38.5480 cb         1 CLA      0.058900
     36 O2A        81.0817   55.7630   35.5875 o1         1 CLA     -0.437200
     37 O2D        76.9999   54.4261   37.6890 o1         1 CLA     -0.357600
     38 C3         82.6993   52.6963   36.8803 c5         1 CLA      0.031200
     39 C3A        79.7219   58.3624   37.9520 a1         1 CLA      0.166800
     40 C3B        77.9896   61.2116   43.1254 cb         1 CLA      0.035000
     41 C3C        72.6113   58.2434   43.1803 cb         1 CLA     -0.089900
     42 C3D        73.9506   56.1507   37.6526 cb         1 CLA     -0.035900
     43 C4         81.8731   51.4752   37.2693 a3         1 CLA     -0.053300
     44 C4A        78.7104   58.8466   39.0370 ac         1 CLA      0.001800
     45 C4B        76.7857   60.5028   42.6175 cn         1 CLA     -0.020900
     46 C4C        73.2877   58.0240   41.8820 cr         1 CLA     -0.044400
     47 C4D        75.0298   56.8747   38.1831 c6         1 CLA     -0.046000
     48 C5         84.1671   52.5745   36.6920 a2         1 CLA     -0.070400
     49 C6         85.0702   53.8332   37.1607 a2         1 CLA      0.043900
     50 C7         85.0588   53.9813   38.6579 a2         1 CLA     -0.150000
     51 C8         86.0845   55.0366   39.1927 a1         1 CLA      0.064200
     52 C9         87.5107   54.4086   39.1520 a3         1 CLA     -0.259300
     53 C10        85.7095   55.6372   40.6147 a2         1 CLA     -0.071900
     54 C11        84.3920   56.4049   40.7910 a2         1 CLA      0.014500
     55 C12        84.4098   57.3075   42.0845 a2         1 CLA     -0.112100
     56 C13        84.4524   56.5338   43.4575 a1         1 CLA      0.089200
     57 C14        83.1956   55.6586   43.7445 a3         1 CLA     -0.239100
     58 C15        84.6954   57.5226   44.6068 a2         1 CLA     -0.102200
     59 C16        83.5737   58.5343   44.9101 a2         1 CLA      0.023900
     60 C17        83.9928   59.2030   46.2501 a2         1 CLA     -0.105700
     61 C18        83.2964   60.4617   46.7375 a1         1 CLA      0.206800
     62 C19        81.7856   60.2738   46.9955 a3         1 CLA     -0.280100
     63 C20        83.9142   61.0739   48.0267 a3         1 CLA     -0.280100
     64 NC         74.4405   58.7947   41.8341 nx         1 CLA     -0.309200
     65 MG         75.8867   58.7528   40.2981 mg         1 CLA      0.895000
     66 HMD3       70.8863   56.1399   38.2861 dc         1 CLA      0.064300
     67 HMD2       71.7383   54.6873   37.5742 dc         1 CLA      0.064300
     68 HMD1       71.4521   54.6781   39.3322 dc         1 CLA      0.064300
     69 HMC3       73.8046   60.1104   45.6467 dc         1 CLA      0.052100
     70 HMC2       72.0988   59.9228   45.3214 dc         1 CLA      0.052100
     71 HMC1       73.2360   58.6673   45.8583 dc         1 CLA      0.052100
     72 HMB3       80.4587   62.3194   43.0010 dc         1 CLA      0.063600
     73 HMB2       80.9684   60.6645   42.5697 dc         1 CLA      0.063600
     74 HMB1       80.8982   61.9856   41.3955 dc         1 CLA      0.063600
     75 HMA3       81.6605   57.4457   37.6792 dc         1 CLA      0.058300
     76 HMA2       81.3739   57.8265   39.3539 dc         1 CLA      0.058300
     77 HMA1       80.6251   56.4240   38.6176 dc         1 CLA      0.058300
     78 HED3       78.2838   53.1039   38.7579 dc         1 CLA      0.079300
     79 HED2       78.1047   52.6484   37.1613 dc         1 CLA      0.079300
     80 HED1       79.1460   54.1078   37.6190 dc         1 CLA      0.079300
     81 HBC3       71.1247   55.5441   43.0101 dc         1 CLA      0.016300
     82 HBC2       71.9562   55.7465   44.4801 dc         1 CLA      0.016300
     83 HBC1       70.1443   56.1711   44.3856 dc         1 CLA      0.016300
     84 HBB2       78.8870   62.3931   46.2053 da         1 CLA      0.183000
     85 HBB1       80.1245   61.6640   44.9882 da         1 CLA      0.183000
     86 HBA2       79.8393   58.4669   33.9791 dc         1 CLA      0.029400
     87 HBA1       80.7698   58.3300   35.3817 dc         1 CLA      0.029400
     88 HAC2       70.8574   58.1251   44.5316 dc         1 CLA      0.029300
     89 HAC1       70.6400   57.7120   42.7389 dc         1 CLA      0.029300
     90 HAA2       77.9132   57.3104   35.0056 dc         1 CLA      0.028700
     91 HAA1       78.2081   58.9811   35.5093 dc         1 CLA      0.028700
     92 H203       83.3550   61.9238   48.3696 dc         1 CLA      0.065600
     93 H202       83.9191   60.3031   48.7877 dc         1 CLA      0.065600
     94 H201       84.9388   61.4315   47.9443 dc         1 CLA      0.065600
     95 H193       81.5756   59.7543   47.8854 dc         1 CLA      0.065600
     96 H192       81.3545   61.2561   46.9005 dc         1 CLA      0.065600
     97 H191       81.3012   59.7214   46.2279 dc         1 CLA      0.065600
     98 H172       83.9557   58.3648   46.9447 dc         1 CLA      0.027600
     99 H171       85.0057   59.4963   46.1631 dc         1 CLA      0.027600
    100 H162       83.5511   59.3269   44.1629 dc         1 CLA      0.002900
    101 H161       82.5689   58.0416   44.9777 dc         1 CLA      0.002900
    102 H152       84.8828   56.8188   45.4324 dc         1 CLA      0.029100
    103 H151       85.5440   58.1129   44.2460 dc         1 CLA      0.029100
    104 H143       82.2176   56.0416   43.3536 dc         1 CLA      0.063600
    105 H142       83.2943   54.6499   43.2575 dc         1 CLA      0.063600
    106 H141       83.0087   55.5757   44.7804 dc         1 CLA      0.063600
    107 H122       85.2656   58.0174   42.0735 dc         1 CLA      0.032500
    108 H121       83.5051   57.8593   42.0703 dc         1 CLA      0.032500
    109 H112       84.3230   57.1479   40.0587 dc         1 CLA      0.006600
    110 H111       83.5703   55.8498   40.8029 dc         1 CLA      0.006600
    111 H102       85.5821   54.9029   41.3372 dc         1 CLA      0.024100
    112 H101       86.4763   56.2073   41.1139 dc         1 CLA      0.024100
    113 HHD        71.8383   56.8691   41.0105 da         1 CLA      0.174300
    114 HHC        75.6366   60.6657   44.3351 da         1 CLA      0.136800
    115 HHB        80.1945   60.1192   39.8812 da         1 CLA      0.138300
    116 HBD        75.8750   56.4677   35.1750 dc         1 CLA      0.107700
    117 HAB        77.1079   62.1248   44.9002 da         1 CLA      0.155200
    118 H93        87.4307   53.6413   39.9410 dc         1 CLA      0.069500
    119 H92        87.7459   53.8430   38.2853 dc         1 CLA      0.069500
    120 H91        88.3379   55.0588   39.4651 dc         1 CLA      0.069500
    121 H8         86.0502   55.8502   38.4771 dc         1 CLA      0.029300
    122 H72        84.1058   54.3807   38.9570 dc         1 CLA      0.044400
    123 H71        85.2882   53.0204   39.1162 dc         1 CLA      0.044400
    124 H62        86.0569   53.6724   36.7808 dc         1 CLA      0.015600
    125 H61        84.6772   54.6994   36.6684 dc         1 CLA      0.015600
    126 H52        84.5369   51.7690   37.3701 dc         1 CLA      0.033200
    127 H51        84.4123   52.3782   35.6118 dc         1 CLA      0.033200
    128 H43        80.8092   51.6499   37.0583 dc         1 CLA      0.037000
    129 H42        82.2035   50.5883   36.7726 dc         1 CLA      0.037000
    130 H41        81.9803   51.3455   38.3262 dc         1 CLA      0.037000
    131 H3A        80.1961   59.1975   37.3914 dc         1 CLA      0.041100
    132 H2A        78.9869   56.5022   37.1489 dc         1 CLA      0.083100
    133 H2         81.9457   54.4935   37.4494 da         1 CLA      0.180900
    134 H18        83.4167   61.2464   45.9872 dc         1 CLA     -0.003900
    135 H13        85.3074   55.8389   43.4863 dc         1 CLA      0.019700
    136 H12        80.7435   53.6705   35.0852 dc         1 CLA      0.120400
    137 H11        82.4494   54.3310   34.5439 dc         1 CLA      0.120400
    138 C1         67.8183   61.6370   50.3793 Z1         2 LUT      0.509236
    139 C2         66.4433   61.3866   51.1215 Z2         2 LUT     -0.434695
    140 C3         65.5788   62.5884   51.4569 Z3         2 LUT      0.437453
    141 O3         65.6596   63.0613   52.7765 S1         2 LUT     -0.547129
    142 C4         66.0520   63.8266   50.6210 Z4         2 LUT     -0.468603
    143 C5         66.5550   63.4909   49.3067 Z5         2 LUT      0.279246
    144 C6         67.3800   62.4554   49.1143 Z6         2 LUT     -0.305473
    145 C7         67.7470   61.9767   47.7334 Z7         2 LUT      0.069402
    146 C8         68.9370   62.3279   47.1731 Z8         2 LUT     -0.191631
    147 C9         69.5548   61.8155   45.9511 Z9         2 LUT      0.196698
    148 C10        70.5240   62.6240   45.4709 Y1         2 LUT     -0.208611
    149 C11        71.3693   62.4087   44.3429 Y2         2 LUT      0.030784
    150 C12        72.3017   63.3005   44.0030 Y3         2 LUT     -0.220316
    151 C13        73.3759   63.1227   43.1084 Y4         2 LUT      0.215937
    152 C14        74.4986   63.8500   43.2571 Y5         2 LUT     -0.185793
    153 C15        75.5826   63.8612   42.4181 Y6         2 LUT     -0.057835
    154 C16        68.5147   60.3228   49.9783 Y7         2 LUT     -0.405615
    155 C17        68.7623   62.3553   51.4624 Y7         2 LUT     -0.405615
    156 C18        65.8387   64.2648   48.1909 Y9         2 LUT     -0.369639
    157 C19        69.1323   60.5040   45.3684 W1         2 LUT     -0.333362
    158 C20        73.0257   62.4420   41.8119 W2         2 LUT     -0.323439
    159 C21        86.5972   64.8135   36.0670 Z1         2 LUT      0.406104
    160 C22        87.4097   64.2789   34.8345 Z2         2 LUT     -0.404965
    161 C23        87.5732   65.2579   33.6944 Z3         2 LUT      0.391255
    162 O23        88.3444   64.6712   32.5876 S1         2 LUT     -0.528210
    163 C24        86.3721   66.0109   33.3351 W6         2 LUT     -0.258361
    164 C25        85.2317   65.9652   34.0457 Z5         2 LUT      0.133546
    165 C26        85.1498   65.1576   35.4655 W8         2 LUT     -0.147008
    166 C27        84.3172   65.9848   36.4939 Z7         2 LUT      0.023843
    167 C28        83.4099   65.4420   37.2829 Z8         2 LUT     -0.216987
    168 C29        82.8743   65.9192   38.5218 Z9         2 LUT      0.206524
    169 C30        81.9102   65.2060   39.1527 Y1         2 LUT     -0.215556
    170 C31        81.0984   65.7009   40.2555 Y2         2 LUT      0.025142
    171 C32        80.0186   64.9248   40.5770 Y3         2 LUT     -0.212209
    172 C33        78.9439   65.3033   41.4451 Y4         2 LUT      0.240937
    173 C34        77.7236   64.6344   41.5063 Y5         2 LUT     -0.218862
    174 C35        76.6785   64.6715   42.4800 Y6         2 LUT     -0.023547
    175 C36        87.3652   65.9232   36.7863 Y7         2 LUT     -0.393485
    176 C37        86.3902   63.6209   37.0691 Y7         2 LUT     -0.393485
    177 C38        83.9283   66.6723   33.5729 Y9         2 LUT     -0.387526
    178 C39        83.2918   67.3484   38.8344 W1         2 LUT     -0.322618
    179 C40        79.1537   66.6348   42.2204 W2         2 LUT     -0.358472
    180 H403       78.5693   67.3512   41.7429 R7         2 LUT      0.097720
    181 H402       78.8784   66.5279   43.2345 R7         2 LUT      0.097720
    182 H401       80.2132   66.8383   42.2749 R7         2 LUT      0.097720
    183 H393       82.6632   67.7978   39.5352 R4         2 LUT      0.082505
    184 H392       84.3044   67.6031   39.1665 R4         2 LUT      0.082505
    185 H391       83.0096   67.9636   37.9444 R4         2 LUT      0.082505
    186 H383       83.4944   67.3466   34.3042 R1         2 LUT      0.104030
    187 H382       84.2392   67.1932   32.6346 R1         2 LUT      0.104030
    188 H381       83.1493   65.9042   33.2287 R1         2 LUT      0.104030
    189 H373       85.7153   63.9450   37.7836 T4         2 LUT      0.089537
    190 H372       85.9750   62.7780   36.5267 T4         2 LUT      0.089537
    191 H371       87.2751   63.2082   37.5814 T4         2 LUT      0.089537
    192 H363       88.3808   65.5991   37.1476 T4         2 LUT      0.089537
    193 H362       87.4242   66.8457   36.2395 T4         2 LUT      0.089537
    194 H361       86.9331   66.3519   37.7347 T4         2 LUT      0.089537
    195 H222       88.3560   63.9349   35.1662 U2         2 LUT      0.127376
    196 H221       87.0716   63.3341   34.4423 U2         2 LUT      0.127376
    197 H203       72.0388   62.6650   41.4131 R7         2 LUT      0.087068
    198 H202       73.5489   62.7630   40.9905 R7         2 LUT      0.087068
    199 H201       72.9427   61.3609   41.8866 R7         2 LUT      0.087068
    200 H193       68.2480   60.1469   45.8045 R4         2 LUT      0.089716
    201 H192       69.0857   60.6450   44.2424 R4         2 LUT      0.089716
    202 H191       69.9102   59.7921   45.5122 R4         2 LUT      0.089716
    203 H183       64.7551   64.1270   48.1172 R1         2 LUT      0.094572
    204 H182       65.9827   65.3275   48.3622 R1         2 LUT      0.094572
    205 H181       66.2039   64.1075   47.1929 R1         2 LUT      0.094572
    206 H173       69.5802   62.6891   50.8105 T4         2 LUT      0.093752
    207 H172       68.5245   63.2730   51.9240 T4         2 LUT      0.093752
    208 H171       69.1177   61.7160   52.3267 T4         2 LUT      0.093752
    209 H163       67.8619   59.7540   49.3135 T4         2 LUT      0.093752
    210 H162       69.3100   60.5272   49.3623 T4         2 LUT      0.093752
    211 H161       68.7701   59.5745   50.8858 T4         2 LUT      0.093752
    212 HO3        65.4459   62.3930   53.4007 Q1         2 LUT      0.300121
    213 H8         69.4381   63.0493   47.7517 U7         2 LUT      0.080784
    214 H7         67.0782   61.2855   47.2412 U6         2 LUT      0.042190
    215 H42        65.2003   64.4666   50.5443 U5         2 LUT      0.145166
    216 H41        66.7284   64.3779   51.1781 U5         2 LUT      0.145166
    217 H35        76.8193   65.2226   43.3588 T3         2 LUT      0.077919
    218 H34        77.6824   63.7858   40.8222 T2         2 LUT      0.073626
    219 H32        79.8263   63.9522   40.2261 T1         2 LUT      0.092510
    220 H31        81.2907   66.6661   40.5479 U9         2 LUT      0.070048
    221 H30        81.6983   64.2378   38.7739 U8         2 LUT      0.085442
    222 H3         64.4952   62.3592   51.1448 U3         2 LUT     -0.031596
    223 H28        83.0778   64.4829   36.9109 U7         2 LUT      0.084728
    224 H27        84.7420   66.9835   36.7173 U6         2 LUT      0.087291
    225 H26        84.6606   64.1803   35.3577 Q6         2 LUT      0.075325
    226 H24        86.4125   66.5900   32.4325 Q5         2 LUT      0.094482
    227 H23        88.3071   66.0388   33.9332 U3         2 LUT     -0.024869
    228 H22        65.7649   60.9235   50.3981 U2         2 LUT      0.127376
    229 H21        66.5077   60.5990   51.8957 U2         2 LUT      0.127376
    230 H15        75.6609   63.2588   41.5184 T3         2 LUT      0.093200
    231 H14        74.6761   64.7132   44.0259 T2         2 LUT      0.068865
    232 H12        72.4736   64.2057   44.6352 T1         2 LUT      0.095507
    233 H11        71.3489   61.3983   43.8852 U9         2 LUT      0.068930
    234 H10        70.7767   63.5096   46.0503 U8         2 LUT      0.083911
    235 H1         87.7175   64.3192   31.9543 Q1         2 LUT      0.297311
@<TRIPOS>BOND
    1     6     1 1
    2     7     2 1
    3     8     3 1
    4     9     4 1
    5    11     4 1
    6    12     6 1
    7    13     9 1
    8    16     9 1
    9    25     5 1
   10    25    16 1
   11    26    10 1
   12    26    17 1
   13    27    18 1
   14    28    14 1
   15    28    19 1
   16    29    12 1
   17    30    13 1
   18    31    24 1
   19    32     1 1
   20    32    25 1
   21    33    21 1
   22    33    26 1
   23    34    22 1
   24    34    27 1
   25    35    23 1
   26    35    28 1
   27    36    12 1
   28    36    24 1
   29    37    13 1
   30    37    15 1
   31    38    31 1
   32    39    20 1
   33    39    32 1
   34    40     2 1
   35    40    33 1
   36    41     3 1
   37    41    34 1
   38    42     4 1
   39    42    35 1
   40    43    38 1
   41    44     5 1
   42    44    17 1
   43    44    39 1
   44    45    10 1
   45    45    18 1
   46    45    40 1
   47    46    19 1
   48    46    41 1
   49    47    14 1
   50    47    16 1
   51    47    42 1
   52    48    38 1
   53    49    48 1
   54    50    49 1
   55    51    50 1
   56    52    51 1
   57    53    51 1
   58    54    53 1
   59    55    54 1
   60    56    55 1
   61    57    56 1
   62    58    56 1
   63    59    58 1
   64    60    59 1
   65    61    60 1
   66    62    61 1
   67    63    61 1
   68    64    27 1
   69    64    46 1
   70    65     5 1
   71    65    10 1
   72    65    64 1
   73    65    14 1
   74    66    23 1
   75    67    23 1
   76    68    23 1
   77    69    22 1
   78    70    22 1
   79    71    22 1
   80    72    21 1
   81    73    21 1
   82    74    21 1
   83    75    20 1
   84    76    20 1
   85    77    20 1
   86    78    15 1
   87    79    15 1
   88    80    15 1
   89    81     8 1
   90    82     8 1
   91    83     8 1
   92    84     7 1
   93    85     7 1
   94    86     6 1
   95    87     6 1
   96    88     3 1
   97    89     3 1
   98    90     1 1
   99    91     1 1
  100    92    63 1
  101    93    63 1
  102    94    63 1
  103    95    62 1
  104    96    62 1
  105    97    62 1
  106    98    60 1
  107    99    60 1
  108   100    59 1
  109   101    59 1
  110   102    58 1
  111   103    58 1
  112   104    57 1
  113   105    57 1
  114   106    57 1
  115   107    55 1
  116   108    55 1
  117   109    54 1
  118   110    54 1
  119   111    53 1
  120   112    53 1
  121   113    19 1
  122   114    18 1
  123   115    17 1
  124   116     9 1
  125   117     2 1
  126   118    52 1
  127   119    52 1
  128   120    52 1
  129   121    51 1
  130   122    50 1
  131   123    50 1
  132   124    49 1
  133   125    49 1
  134   126    48 1
  135   127    48 1
  136   128    43 1
  137   129    43 1
  138   130    43 1
  139   131    39 1
  140   132    32 1
  141   133    31 1
  142   134    61 1
  143   135    56 1
  144   136    24 1
  145   137    24 1
  146   139   138 1
  147   140   139 1
  148   141   140 1
  149   142   140 1
  150   143   142 1
  151   144   138 1
  152   144   143 1
  153   145   144 1
  154   146   145 1
  155   147   146 1
  156   148   147 1
  157   149   148 1
  158   150   149 1
  159   151   150 1
  160   152   151 1
  161   153   152 1
  162   154   138 1
  163   155   138 1
  164   156   143 1
  165   157   147 1
  166   158   151 1
  167   160   159 1
  168   161   160 1
  169   162   161 1
  170   163   161 1
  171   164   163 1
  172   165   159 1
  173   165   164 1
  174   166   165 1
  175   167   166 1
  176   168   167 1
  177   169   168 1
  178   170   169 1
  179   171   170 1
  180   172   171 1
  181   173   172 1
  182   174   153 1
  183   174   173 1
  184   175   159 1
  185   176   159 1
  186   177   164 1
  187   178   168 1
  188   179   172 1
  189   180   179 1
  190   181   179 1
  191   182   179 1
  192   183   178 1
  193   184   178 1
  194   185   178 1
  195   186   177 1
  196   187   177 1
  197   188   177 1
  198   189   176 1
  199   190   176 1
  200   191   176 1
  201   192   175 1
  202   193   175 1
  203   194   175 1
  204   195   160 1
  205   196   160 1
  206   197   158 1
  207   198   158 1
  208   199   158 1
  209   200   157 1
  210   201   157 1
  211   202   157 1
  212   203   156 1
  213   204   156 1
  214   205   156 1
  215   206   155 1
  216   207   155 1
  217   208   155 1
  218   209   154 1
  219   210   154 1
  220   211   154 1
  221   212   141 1
  222   213   146 1
  223   214   145 1
  224   215   142 1
  225   216   142 1
  226   217   174 1
  227   218   173 1
  228   219   171 1
  229   220   170 1
  230   221   169 1
  231   222   140 1
  232   223   167 1
  233   224   166 1
  234   225   165 1
  235   226   163 1
  236   227   161 1
  237   228   139 1
  238   229   139 1
  239   230   153 1
  240   231   152 1
  241   232   150 1
  242   233   149 1
  243   234   148 1
  244   235   162 1
  245   65    153 1
  246   65    174 1
@<TRIPOS>SUBSTRUCTURE
      1 CLA               1 ****               0 ****  **** 
      2 LUT             138 ****               0 ****  **** 
