@<TRIPOS>MOLECULE
Cpptraj generated mol2 file.
  235   246     2     0     0
SMALL
USER_CHARGES


@<TRIPOS>ATOM
      1 CAA        76.2993   58.2530   33.3951 a2         1 CLA     -0.055900
      2 CAB        76.3210   61.6965   42.4650 c8         1 CLA     -0.148500
      3 CAC        69.3576   57.6506   42.0846 a2         1 CLA     -0.012600
      4 CAD        72.0901   55.4700   34.5863 ck         1 CLA      0.398800
      5 NA         75.1991   58.5029   36.7955 ns         1 CLA     -0.225500
      6 CBA        77.5070   58.1110   32.4421 a2         1 CLA     -0.135000
      7 CBB        77.5121   61.7281   43.0932 c0         1 CLA     -0.395200
      8 CBC        69.5274   56.0704   42.1965 a3         1 CLA     -0.037700
      9 CBD        73.4838   56.1222   34.2696 a1         1 CLA     -0.053900
     10 NB         75.1451   59.7513   39.4243 nm         1 CLA     -0.295700
     11 OBD        71.6093   54.6402   33.7705 o2         1 CLA     -0.494600
     12 CGA        78.1469   56.6994   32.2550 c4         1 CLA      0.827000
     13 CGD        74.4910   55.0450   33.8701 c4         1 CLA      0.655300
     14 ND         72.5464   57.3941   37.4868 nm         1 CLA     -0.291600
     15 CED        75.6011   53.1731   34.6779 a3         1 CLA      0.005400
     16 CHA        73.8885   57.0060   35.4038 cs         1 CLA     -0.123800
     17 CHB        77.0496   59.4625   38.0030 aa         1 CLA     -0.291900
     18 CHC        73.8372   60.0431   41.4736 aa         1 CLA     -0.090400
     19 CHD        70.6475   57.2732   39.1360 aa         1 CLA     -0.052000
     20 CMA        78.7336   57.8933   35.9580 a3         1 CLA     -0.230700
     21 CMB        78.5244   61.2740   40.0445 a3         1 CLA     -0.180800
     22 CMC        71.4357   59.2937   43.6521 a3         1 CLA     -0.134000
     23 CMD        69.4865   55.3700   37.0003 a3         1 CLA     -0.141100
     24 C1         79.1746   54.7714   33.3199 a2         1 CLA      0.023000
     25 C1A        75.1073   57.6537   35.6938 ac         1 CLA     -0.015100
     26 C1B        76.4592   59.9781   39.1406 cr         1 CLA      0.054700
     27 C1C        72.6711   59.3403   41.2276 cn         1 CLA     -0.005600
     28 C1D        71.3205   56.9098   37.9427 ap         1 CLA     -0.047300
     29 O1A        78.2392   56.0387   31.1850 o2         1 CLA     -0.610800
     30 O1D        75.2691   55.0093   32.8980 o2         1 CLA     -0.558200
     31 C2         79.6430   54.3279   34.6925 c8         1 CLA     -0.325100
     32 C2A        76.4760   57.6876   34.8842 a1         1 CLA      0.098600
     33 C2B        77.1526   60.6946   40.1845 cb         1 CLA      0.088500
     34 C2C        71.5473   59.0636   42.1660 cb         1 CLA      0.053700
     35 C2D        70.7778   56.0316   36.9153 cb         1 CLA      0.058900
     36 O2A        78.8197   56.2276   33.3803 o1         1 CLA     -0.437200
     37 O2D        74.4709   54.0840   34.8531 o1         1 CLA     -0.357600
     38 C3         80.5314   53.2641   34.7882 c5         1 CLA      0.031200
     39 C3A        77.3671   58.5081   35.7116 a1         1 CLA      0.166800
     40 C3B        76.1454   60.9752   41.1934 cb         1 CLA      0.035000
     41 C3C        70.5879   58.3694   41.4943 cb         1 CLA     -0.089900
     42 C3D        71.7222   56.0418   35.9223 cb         1 CLA     -0.035900
     43 C4         80.0065   51.9274   35.1485 a3         1 CLA     -0.053300
     44 C4A        76.5099   58.8143   36.9488 ac         1 CLA      0.001800
     45 C4B        74.9559   60.3120   40.7061 cn         1 CLA     -0.020900
     46 C4C        71.1428   58.1340   40.1456 cr         1 CLA     -0.044400
     47 C4D        72.7396   56.9331   36.2867 c6         1 CLA     -0.046000
     48 C5         81.9561   53.4258   34.4333 a2         1 CLA     -0.070400
     49 C6         82.7436   54.5223   35.0328 a2         1 CLA      0.043900
     50 C7         82.9424   54.3460   36.4662 a2         1 CLA     -0.150000
     51 C8         83.8596   55.4669   37.1233 a1         1 CLA      0.064200
     52 C9         85.3551   55.1052   36.9160 a3         1 CLA     -0.259300
     53 C10        83.6317   55.7680   38.6137 a2         1 CLA     -0.071900
     54 C11        82.2321   56.3127   39.1160 a2         1 CLA      0.014500
     55 C12        82.3709   56.7139   40.5658 a2         1 CLA     -0.112100
     56 C13        81.0688   57.0523   41.3870 a1         1 CLA      0.089200
     57 C14        80.1186   58.0555   40.6013 a3         1 CLA     -0.239100
     58 C15        81.2620   57.4889   42.8507 a2         1 CLA     -0.102200
     59 C16        81.8462   58.8869   43.0886 a2         1 CLA      0.023900
     60 C17        81.9063   59.2176   44.6202 a2         1 CLA     -0.105700
     61 C18        82.4216   60.5530   45.2056 a1         1 CLA      0.206800
     62 C19        83.8550   60.9867   44.9532 a3         1 CLA     -0.280100
     63 C20        81.4784   61.7167   45.1069 a3         1 CLA     -0.280100
     64 NC         72.3872   58.6504   39.9992 nx         1 CLA     -0.309200
     65 MG         73.7258   58.6376   38.3181 mg         1 CLA      0.895000
     66 HMD3       68.6716   56.0010   36.7233 dc         1 CLA      0.064300
     67 HMD2       69.3994   54.4758   36.3796 dc         1 CLA      0.064300
     68 HMD1       69.4178   55.0321   38.0379 dc         1 CLA      0.064300
     69 HMC3       71.0958   60.3083   43.7224 dc         1 CLA      0.052100
     70 HMC2       70.6591   58.7744   44.2055 dc         1 CLA      0.052100
     71 HMC1       72.4448   59.1984   44.1412 dc         1 CLA      0.052100
     72 HMB3       78.4897   62.2056   40.6100 dc         1 CLA      0.063600
     73 HMB2       79.2792   60.5897   40.4151 dc         1 CLA      0.063600
     74 HMB1       78.7608   61.5599   39.0036 dc         1 CLA      0.063600
     75 HMA3       78.5109   57.0388   36.6439 dc         1 CLA      0.058300
     76 HMA2       79.2432   57.6239   35.0907 dc         1 CLA      0.058300
     77 HMA1       79.4096   58.5658   36.4668 dc         1 CLA      0.058300
     78 HED3       75.6425   52.8166   33.6594 dc         1 CLA      0.079300
     79 HED2       76.4781   53.7354   34.9643 dc         1 CLA      0.079300
     80 HED1       75.6001   52.3863   35.4597 dc         1 CLA      0.079300
     81 HBC3       69.3018   55.4770   41.2752 dc         1 CLA      0.016300
     82 HBC2       70.5421   55.9023   42.5676 dc         1 CLA      0.016300
     83 HBC1       68.8210   55.6897   42.9891 dc         1 CLA      0.016300
     84 HBB2       77.7407   62.1303   44.0362 da         1 CLA      0.183000
     85 HBB1       78.2588   61.0178   42.7662 da         1 CLA      0.183000
     86 HBA2       77.2391   58.4548   31.4412 dc         1 CLA      0.029400
     87 HBA1       78.3256   58.7701   32.7109 dc         1 CLA      0.029400
     88 HAC2       69.0973   58.1533   42.9421 dc         1 CLA      0.029300
     89 HAC1       68.4711   57.7177   41.4359 dc         1 CLA      0.029300
     90 HAA2       75.5480   57.6115   32.9463 dc         1 CLA      0.028700
     91 HAA1       76.0284   59.2368   33.3579 dc         1 CLA      0.028700
     92 H203       81.8960   62.5080   45.7876 dc         1 CLA      0.065600
     93 H202       81.4916   62.0745   44.1023 dc         1 CLA      0.065600
     94 H201       80.4350   61.4326   45.3756 dc         1 CLA      0.065600
     95 H193       83.9799   61.4258   43.9831 dc         1 CLA      0.065600
     96 H192       84.1091   61.8327   45.6420 dc         1 CLA      0.065600
     97 H191       84.5460   60.1601   44.9281 dc         1 CLA      0.065600
     98 H172       80.9610   59.0949   45.1152 dc         1 CLA      0.027600
     99 H171       82.6501   58.5268   45.0365 dc         1 CLA      0.027600
    100 H162       82.8808   58.8469   42.6430 dc         1 CLA      0.002900
    101 H161       81.2195   59.6786   42.7514 dc         1 CLA      0.002900
    102 H152       80.2730   57.2865   43.2640 dc         1 CLA      0.029100
    103 H151       81.9250   56.6547   43.2624 dc         1 CLA      0.029100
    104 H143       79.5229   58.6867   41.3625 dc         1 CLA      0.063600
    105 H142       80.8066   58.7468   40.1482 dc         1 CLA      0.063600
    106 H141       79.5165   57.5496   39.8263 dc         1 CLA      0.063600
    107 H122       82.9277   55.8128   41.0142 dc         1 CLA      0.032500
    108 H121       83.0700   57.5499   40.6025 dc         1 CLA      0.032500
    109 H112       81.8309   57.1428   38.6058 dc         1 CLA      0.006600
    110 H111       81.6018   55.5220   38.9544 dc         1 CLA      0.006600
    111 H102       84.0942   55.0013   39.2147 dc         1 CLA      0.024100
    112 H101       84.2783   56.6657   38.8240 dc         1 CLA      0.024100
    113 HHD        69.6523   56.8938   39.3737 da         1 CLA      0.174300
    114 HHC        74.0129   60.4107   42.4753 da         1 CLA      0.136800
    115 HHB        78.1239   59.6316   37.9030 da         1 CLA      0.138300
    116 HBD        73.4344   56.7508   33.3542 dc         1 CLA      0.107700
    117 HAB        75.4858   62.1959   42.9477 da         1 CLA      0.155200
    118 H93        85.5400   55.0541   35.8378 dc         1 CLA      0.069500
    119 H92        85.9786   55.9570   37.2327 dc         1 CLA      0.069500
    120 H91        85.7699   54.1947   37.3503 dc         1 CLA      0.069500
    121 H8         83.6898   56.3945   36.6111 dc         1 CLA      0.029300
    122 H72        81.9093   54.3977   36.8060 dc         1 CLA      0.044400
    123 H71        83.3780   53.3844   36.7785 dc         1 CLA      0.044400
    124 H62        83.7031   54.4006   34.5274 dc         1 CLA      0.015600
    125 H61        82.3497   55.5237   34.7831 dc         1 CLA      0.015600
    126 H52        82.5293   52.5363   34.5734 dc         1 CLA      0.033200
    127 H51        82.0232   53.4833   33.3653 dc         1 CLA      0.033200
    128 H43        80.3932   51.5374   36.1248 dc         1 CLA      0.037000
    129 H42        78.8894   51.9641   35.2242 dc         1 CLA      0.037000
    130 H41        80.2738   51.3011   34.3430 dc         1 CLA      0.037000
    131 H3A        77.3016   59.4314   35.1796 dc         1 CLA      0.041100
    132 H2A        76.9205   56.6067   34.8519 dc         1 CLA      0.083100
    133 H2         79.5541   55.0750   35.4156 da         1 CLA      0.180900
    134 H18        82.3662   60.4586   46.2652 dc         1 CLA     -0.003900
    135 H13        80.4688   56.1411   41.5528 dc         1 CLA      0.019700
    136 H12        78.2136   54.2365   33.0047 dc         1 CLA      0.120400
    137 H11        79.9650   54.5827   32.5899 dc         1 CLA      0.120400
    138 C1         66.4634   61.3556   49.0642 Z1         2 LUT      0.509236
    139 C2         66.5794   62.6704   49.8713 Z2         2 LUT     -0.434695
    140 C3         65.3980   63.5844   50.0647 Z3         2 LUT      0.437453
    141 O3         65.9445   64.8767   50.2392 S1         2 LUT     -0.547129
    142 C4         64.5067   63.4478   48.8410 Z4         2 LUT     -0.468603
    143 C5         65.0197   62.8551   47.5876 Z5         2 LUT      0.279246
    144 C6         65.8702   61.7488   47.6491 Z6         2 LUT     -0.305473
    145 C7         66.7812   61.4254   46.4925 Z7         2 LUT      0.069402
    146 C8         67.9240   61.9635   45.9736 Z8         2 LUT     -0.191631
    147 C9         68.4937   61.7097   44.6792 Z9         2 LUT      0.196698
    148 C10        69.4738   62.5217   44.1517 Y1         2 LUT     -0.208611
    149 C11        70.0564   62.5817   42.8664 Y2         2 LUT      0.030784
    150 C12        71.2661   63.1450   42.5480 Y3         2 LUT     -0.220316
    151 C13        72.0045   63.1828   41.3039 Y4         2 LUT      0.215937
    152 C14        73.3134   63.7487   41.3262 Y5         2 LUT     -0.185793
    153 C15        74.2713   63.5607   40.3014 Y6         2 LUT     -0.057835
    154 C16        65.6077   60.5515   50.1368 Y7         2 LUT     -0.405615
    155 C17        67.8278   60.6967   49.0643 Y7         2 LUT     -0.405615
    156 C18        64.8468   63.7418   46.4119 Y9         2 LUT     -0.369639
    157 C19        67.8574   60.6426   43.8425 W1         2 LUT     -0.333362
    158 C20        71.3077   62.6236   40.0950 W2         2 LUT     -0.323439
    159 C21        86.0015   64.4696   34.1350 Z1         2 LUT      0.406104
    160 C22        86.7830   63.8782   32.9573 Z2         2 LUT     -0.404965
    161 C23        87.0341   64.8959   31.8475 Z3         2 LUT      0.391255
    162 O23        87.3683   64.0933   30.6807 S1         2 LUT     -0.528210
    163 C24        85.9164   65.9367   31.6181 W6         2 LUT     -0.258361
    164 C25        84.7887   65.9656   32.3380 Z5         2 LUT      0.133546
    165 C26        84.6647   65.0530   33.5706 W8         2 LUT     -0.147008
    166 C27        83.7780   65.6194   34.6495 Z7         2 LUT      0.023843
    167 C28        82.5281   65.1055   35.0112 Z8         2 LUT     -0.216987
    168 C29        81.6519   65.5441   36.1287 Z9         2 LUT      0.206524
    169 C30        80.5442   64.7853   36.5780 Y1         2 LUT     -0.215556
    170 C31        79.8210   65.0163   37.8240 Y2         2 LUT      0.025142
    171 C32        78.7011   64.3050   38.2034 Y3         2 LUT     -0.212209
    172 C33        77.7871   64.5473   39.2883 Y4         2 LUT      0.240937
    173 C34        76.6329   63.9052   39.3654 Y5         2 LUT     -0.218862
    174 C35        75.5586   64.0430   40.3286 Y6         2 LUT     -0.023547
    175 C36        86.8651   65.4089   34.9372 Y7         2 LUT     -0.393485
    176 C37        85.8256   63.2108   35.0173 Y7         2 LUT     -0.393485
    177 C38        83.6037   66.8887   31.9009 Y9         2 LUT     -0.387526
    178 C39        82.1553   66.7124   36.8992 W1         2 LUT     -0.322618
    179 C40        78.1692   65.7279   40.1412 W2         2 LUT     -0.358472
    180 H403       78.2093   66.6434   39.5603 R7         2 LUT      0.097720
    181 H402       77.5466   65.9393   41.0087 R7         2 LUT      0.097720
    182 H401       79.1024   65.5622   40.6463 R7         2 LUT      0.097720
    183 H393       82.9436   66.4048   37.5686 R4         2 LUT      0.082505
    184 H392       82.7168   67.3302   36.1961 R4         2 LUT      0.082505
    185 H391       81.3022   67.3661   37.2716 R4         2 LUT      0.082505
    186 H383       83.3324   67.6863   32.6014 R1         2 LUT      0.104030
    187 H382       83.7475   67.2715   30.8652 R1         2 LUT      0.104030
    188 H381       82.7078   66.2122   31.7875 R1         2 LUT      0.104030
    189 H373       85.3438   62.4490   34.4493 T4         2 LUT      0.089537
    190 H372       86.7655   62.8289   35.3993 T4         2 LUT      0.089537
    191 H371       85.1732   63.4513   35.8498 T4         2 LUT      0.089537
    192 H363       87.1820   66.3093   34.3489 T4         2 LUT      0.089537
    193 H362       86.4323   65.6976   35.8871 T4         2 LUT      0.089537
    194 H361       87.7920   64.9230   35.2673 T4         2 LUT      0.089537
    195 H222       87.7900   63.5080   33.2477 U2         2 LUT      0.127376
    196 H221       86.2391   63.0326   32.4927 U2         2 LUT      0.127376
    197 H203       70.4828   61.9150   40.1917 R7         2 LUT      0.087068
    198 H202       70.8710   63.3477   39.4331 R7         2 LUT      0.087068
    199 H201       72.0375   62.0057   39.5061 R7         2 LUT      0.087068
    200 H193       66.9233   60.8426   43.3415 R4         2 LUT      0.089716
    201 H192       68.5957   60.4486   43.0494 R4         2 LUT      0.089716
    202 H191       67.8036   59.7915   44.3338 R4         2 LUT      0.089716
    203 H183       63.8526   64.0533   46.2434 R1         2 LUT      0.094572
    204 H182       65.5904   64.5056   46.3474 R1         2 LUT      0.094572
    205 H181       65.0639   63.1804   45.4911 R1         2 LUT      0.094572
    206 H173       68.6157   61.3314   48.6052 T4         2 LUT      0.093752
    207 H172       68.1947   60.4911   50.0416 T4         2 LUT      0.093752
    208 H171       67.9181   59.8025   48.4420 T4         2 LUT      0.093752
    209 H163       65.8989   60.6270   51.1817 T4         2 LUT      0.093752
    210 H162       64.5624   60.9502   50.1820 T4         2 LUT      0.093752
    211 H161       65.3180   59.5494   49.9479 T4         2 LUT      0.093752
    212 HO3        65.3849   65.3259   50.9299 Q1         2 LUT      0.300121
    213 H8         68.3338   62.7742   46.5593 U7         2 LUT      0.080784
    214 H7         66.3203   60.7305   45.7797 U6         2 LUT      0.042190
    215 H42        63.5941   62.9376   49.0607 U5         2 LUT      0.145166
    216 H41        64.1225   64.4330   48.6005 U5         2 LUT      0.145166
    217 H35        75.7787   64.5550   41.2658 T3         2 LUT      0.077919
    218 H34        76.3053   63.2798   38.5602 T2         2 LUT      0.073626
    219 H32        78.3639   63.4231   37.4946 T1         2 LUT      0.092510
    220 H31        80.1254   65.8234   38.4184 U9         2 LUT      0.070048
    221 H30        80.4340   63.8586   36.0222 U8         2 LUT      0.085442
    222 H3         64.7676   63.1800   50.8616 U3         2 LUT     -0.031596
    223 H28        82.2102   64.2720   34.4015 U7         2 LUT      0.084728
    224 H27        84.1896   66.3015   35.2659 U6         2 LUT      0.087291
    225 H26        84.1416   64.1611   33.2231 Q6         2 LUT      0.075325
    226 H24        85.9171   66.4724   30.6700 Q5         2 LUT      0.094482
    227 H23        87.9752   65.4320   32.1569 U3         2 LUT     -0.024869
    228 H22        66.9908   62.4694   50.8678 U2         2 LUT      0.127376
    229 H21        67.3899   63.2413   49.3642 U2         2 LUT      0.127376
    230 H15        73.9396   63.0509   39.3951 T3         2 LUT      0.093200
    231 H14        73.6361   64.1020   42.2792 T2         2 LUT      0.068865
    232 H12        71.7732   63.6705   43.3751 T1         2 LUT      0.095507
    233 H11        69.4751   62.1512   42.0350 U9         2 LUT      0.068930
    234 H10        69.8676   63.2191   44.9112 U8         2 LUT      0.083911
    235 H1         86.6183   64.0129   30.0446 Q1         2 LUT      0.297311
@<TRIPOS>BOND
    1     6     1 1
    2     7     2 1
    3     8     3 1
    4     9     4 1
    5    11     4 1
    6    12     6 1
    7    13     9 1
    8    16     9 1
    9    25     5 1
   10    25    16 1
   11    26    10 1
   12    26    17 1
   13    27    18 1
   14    28    14 1
   15    28    19 1
   16    29    12 1
   17    30    13 1
   18    31    24 1
   19    32     1 1
   20    32    25 1
   21    33    21 1
   22    33    26 1
   23    34    22 1
   24    34    27 1
   25    35    23 1
   26    35    28 1
   27    36    12 1
   28    36    24 1
   29    37    13 1
   30    37    15 1
   31    38    31 1
   32    39    20 1
   33    39    32 1
   34    40     2 1
   35    40    33 1
   36    41     3 1
   37    41    34 1
   38    42     4 1
   39    42    35 1
   40    43    38 1
   41    44     5 1
   42    44    17 1
   43    44    39 1
   44    45    10 1
   45    45    18 1
   46    45    40 1
   47    46    19 1
   48    46    41 1
   49    47    14 1
   50    47    16 1
   51    47    42 1
   52    48    38 1
   53    49    48 1
   54    50    49 1
   55    51    50 1
   56    52    51 1
   57    53    51 1
   58    54    53 1
   59    55    54 1
   60    56    55 1
   61    57    56 1
   62    58    56 1
   63    59    58 1
   64    60    59 1
   65    61    60 1
   66    62    61 1
   67    63    61 1
   68    64    27 1
   69    64    46 1
   70    65     5 1
   71    65    10 1
   72    65    64 1
   73    65    14 1
   74    66    23 1
   75    67    23 1
   76    68    23 1
   77    69    22 1
   78    70    22 1
   79    71    22 1
   80    72    21 1
   81    73    21 1
   82    74    21 1
   83    75    20 1
   84    76    20 1
   85    77    20 1
   86    78    15 1
   87    79    15 1
   88    80    15 1
   89    81     8 1
   90    82     8 1
   91    83     8 1
   92    84     7 1
   93    85     7 1
   94    86     6 1
   95    87     6 1
   96    88     3 1
   97    89     3 1
   98    90     1 1
   99    91     1 1
  100    92    63 1
  101    93    63 1
  102    94    63 1
  103    95    62 1
  104    96    62 1
  105    97    62 1
  106    98    60 1
  107    99    60 1
  108   100    59 1
  109   101    59 1
  110   102    58 1
  111   103    58 1
  112   104    57 1
  113   105    57 1
  114   106    57 1
  115   107    55 1
  116   108    55 1
  117   109    54 1
  118   110    54 1
  119   111    53 1
  120   112    53 1
  121   113    19 1
  122   114    18 1
  123   115    17 1
  124   116     9 1
  125   117     2 1
  126   118    52 1
  127   119    52 1
  128   120    52 1
  129   121    51 1
  130   122    50 1
  131   123    50 1
  132   124    49 1
  133   125    49 1
  134   126    48 1
  135   127    48 1
  136   128    43 1
  137   129    43 1
  138   130    43 1
  139   131    39 1
  140   132    32 1
  141   133    31 1
  142   134    61 1
  143   135    56 1
  144   136    24 1
  145   137    24 1
  146   139   138 1
  147   140   139 1
  148   141   140 1
  149   142   140 1
  150   143   142 1
  151   144   138 1
  152   144   143 1
  153   145   144 1
  154   146   145 1
  155   147   146 1
  156   148   147 1
  157   149   148 1
  158   150   149 1
  159   151   150 1
  160   152   151 1
  161   153   152 1
  162   154   138 1
  163   155   138 1
  164   156   143 1
  165   157   147 1
  166   158   151 1
  167   160   159 1
  168   161   160 1
  169   162   161 1
  170   163   161 1
  171   164   163 1
  172   165   159 1
  173   165   164 1
  174   166   165 1
  175   167   166 1
  176   168   167 1
  177   169   168 1
  178   170   169 1
  179   171   170 1
  180   172   171 1
  181   173   172 1
  182   174   153 1
  183   174   173 1
  184   175   159 1
  185   176   159 1
  186   177   164 1
  187   178   168 1
  188   179   172 1
  189   180   179 1
  190   181   179 1
  191   182   179 1
  192   183   178 1
  193   184   178 1
  194   185   178 1
  195   186   177 1
  196   187   177 1
  197   188   177 1
  198   189   176 1
  199   190   176 1
  200   191   176 1
  201   192   175 1
  202   193   175 1
  203   194   175 1
  204   195   160 1
  205   196   160 1
  206   197   158 1
  207   198   158 1
  208   199   158 1
  209   200   157 1
  210   201   157 1
  211   202   157 1
  212   203   156 1
  213   204   156 1
  214   205   156 1
  215   206   155 1
  216   207   155 1
  217   208   155 1
  218   209   154 1
  219   210   154 1
  220   211   154 1
  221   212   141 1
  222   213   146 1
  223   214   145 1
  224   215   142 1
  225   216   142 1
  226   217   174 1
  227   218   173 1
  228   219   171 1
  229   220   170 1
  230   221   169 1
  231   222   140 1
  232   223   167 1
  233   224   166 1
  234   225   165 1
  235   226   163 1
  236   227   161 1
  237   228   139 1
  238   229   139 1
  239   230   153 1
  240   231   152 1
  241   232   150 1
  242   233   149 1
  243   234   148 1
  244   235   162 1
  245   65    153 1
  246   65    174 1
@<TRIPOS>SUBSTRUCTURE
      1 CLA               1 ****               0 ****  **** 
      2 LUT             138 ****               0 ****  **** 
