@<TRIPOS>MOLECULE
Cpptraj generated mol2 file.
  235   246     2     0     0
SMALL
USER_CHARGES


@<TRIPOS>ATOM
      1 CAA        77.7979   57.9439   33.6282 a2         1 CLA     -0.055900
      2 CAB        78.0399   61.5879   42.8038 c8         1 CLA     -0.148500
      3 CAC        71.1130   57.7848   42.4138 a2         1 CLA     -0.012600
      4 CAD        73.2704   55.8419   34.8898 ck         1 CLA      0.398800
      5 NA         76.9005   58.3267   37.1686 ns         1 CLA     -0.225500
      6 CBA        78.9913   57.6186   32.6944 a2         1 CLA     -0.135000
      7 CBB        79.3076   61.5892   43.3273 c0         1 CLA     -0.395200
      8 CBC        71.1684   56.2397   42.3243 a3         1 CLA     -0.037700
      9 CBD        74.8149   56.1900   34.5333 a1         1 CLA     -0.053900
     10 NB         76.7304   59.9634   39.6636 nm         1 CLA     -0.295700
     11 OBD        72.4635   55.1556   34.2114 o2         1 CLA     -0.494600
     12 CGA        79.0851   56.1694   32.3698 c4         1 CLA      0.827000
     13 CGD        75.6281   54.9218   34.2195 c4         1 CLA      0.655300
     14 ND         73.9146   57.8452   37.6043 nm         1 CLA     -0.291600
     15 CED        75.9471   52.5993   34.6415 a3         1 CLA      0.005400
     16 CHA        75.3296   57.0039   35.7430 cs         1 CLA     -0.123800
     17 CHB        78.6390   59.6522   38.0784 aa         1 CLA     -0.291900
     18 CHC        75.4992   60.2404   41.7313 aa         1 CLA     -0.090400
     19 CHD        72.1557   57.7356   39.3793 aa         1 CLA     -0.052000
     20 CMA        80.3999   57.6081   36.3378 a3         1 CLA     -0.230700
     21 CMB        80.1279   61.5891   40.2158 a3         1 CLA     -0.180800
     22 CMC        73.2356   59.9258   43.7653 a3         1 CLA     -0.134000
     23 CMD        70.5486   56.0970   37.1244 a3         1 CLA     -0.141100
     24 C1         79.5484   53.9849   33.1082 a2         1 CLA      0.023000
     25 C1A        76.6704   57.5765   36.0173 ac         1 CLA     -0.015100
     26 C1B        78.0509   60.1510   39.2437 cr         1 CLA      0.054700
     27 C1C        74.2819   59.6389   41.3864 cn         1 CLA     -0.005600
     28 C1D        72.6306   57.4401   38.0775 ap         1 CLA     -0.047300
     29 O1A        78.6649   55.6847   31.3286 o2         1 CLA     -0.610800
     30 O1D        76.5039   54.9360   33.4158 o2         1 CLA     -0.558200
     31 C2         80.1607   53.5152   34.3754 c8         1 CLA     -0.325100
     32 C2A        77.9855   57.4755   35.1301 a1         1 CLA      0.098600
     33 C2B        78.7360   60.9501   40.3071 cb         1 CLA      0.088500
     34 C2C        73.1851   59.4286   42.3441 cb         1 CLA      0.053700
     35 C2D        71.9607   56.6243   37.1087 cb         1 CLA      0.058900
     36 O2A        79.6382   55.4465   33.3513 o1         1 CLA     -0.437200
     37 O2D        75.2405   53.8149   34.9581 o1         1 CLA     -0.357600
     38 C3         80.9628   52.4258   34.3844 c5         1 CLA      0.031200
     39 C3A        79.0545   58.2795   35.9271 a1         1 CLA      0.166800
     40 C3B        77.8423   61.0427   41.4553 cb         1 CLA      0.035000
     41 C3C        72.3058   58.5186   41.7444 cb         1 CLA     -0.089900
     42 C3D        73.0057   56.4883   36.1233 cb         1 CLA     -0.035900
     43 C4         80.4241   51.1012   34.7048 a3         1 CLA     -0.053300
     44 C4A        78.1470   58.8486   37.0841 ac         1 CLA      0.001800
     45 C4B        76.5758   60.4366   40.9318 cn         1 CLA     -0.020900
     46 C4C        72.7695   58.4444   40.3825 cr         1 CLA     -0.044400
     47 C4D        74.1606   57.1232   36.5093 c6         1 CLA     -0.046000
     48 C5         82.4686   52.5194   34.0226 a2         1 CLA     -0.070400
     49 C6         83.1806   53.8581   34.3284 a2         1 CLA      0.043900
     50 C7         83.2872   53.9487   35.8361 a2         1 CLA     -0.150000
     51 C8         83.7765   55.3971   36.3424 a1         1 CLA      0.064200
     52 C9         84.9817   55.8579   35.4899 a3         1 CLA     -0.259300
     53 C10        84.2174   55.3907   37.8646 a2         1 CLA     -0.071900
     54 C11        83.0193   55.3957   38.8742 a2         1 CLA      0.014500
     55 C12        83.2903   56.2446   40.1769 a2         1 CLA     -0.112100
     56 C13        82.0079   56.3095   41.0831 a1         1 CLA      0.089200
     57 C14        80.9720   57.2087   40.3943 a3         1 CLA     -0.239100
     58 C15        82.3088   56.7696   42.5413 a2         1 CLA     -0.102200
     59 C16        82.9387   58.1408   42.8505 a2         1 CLA      0.023900
     60 C17        83.1682   58.3285   44.3352 a2         1 CLA     -0.105700
     61 C18        83.3588   59.7926   44.9632 a1         1 CLA      0.206800
     62 C19        84.5882   60.5324   44.4149 a3         1 CLA     -0.280100
     63 C20        82.0934   60.6364   44.9761 a3         1 CLA     -0.280100
     64 NC         73.9802   59.0873   40.2173 nx         1 CLA     -0.309200
     65 MG         75.3870   58.9589   38.5465 mg         1 CLA      0.895000
     66 HMD3       70.0490   56.2353   36.1684 dc         1 CLA      0.064300
     67 HMD2       70.3940   55.0693   37.5245 dc         1 CLA      0.064300
     68 HMD1       70.0005   56.7213   37.7631 dc         1 CLA      0.064300
     69 HMC3       73.9233   59.4723   44.4262 dc         1 CLA      0.052100
     70 HMC2       73.3336   60.9806   43.7125 dc         1 CLA      0.052100
     71 HMC1       72.2462   59.7663   44.2013 dc         1 CLA      0.052100
     72 HMB3       81.0052   61.2180   40.8120 dc         1 CLA      0.063600
     73 HMB2       80.3789   61.6837   39.1221 dc         1 CLA      0.063600
     74 HMB1       80.1582   62.6367   40.4750 dc         1 CLA      0.063600
     75 HMA3       81.1404   58.3038   36.7746 dc         1 CLA      0.058300
     76 HMA2       80.1997   56.7626   37.0332 dc         1 CLA      0.058300
     77 HMA1       80.8243   57.2325   35.4292 dc         1 CLA      0.058300
     78 HED3       75.6399   51.8859   35.3540 dc         1 CLA      0.079300
     79 HED2       75.6470   52.2268   33.6400 dc         1 CLA      0.079300
     80 HED1       77.0326   52.7173   34.6287 dc         1 CLA      0.079300
     81 HBC3       70.7773   55.7954   43.2504 dc         1 CLA      0.016300
     82 HBC2       70.5150   55.9101   41.5047 dc         1 CLA      0.016300
     83 HBC1       72.2114   55.8944   42.2151 dc         1 CLA      0.016300
     84 HBB2       79.5043   62.0238   44.3129 da         1 CLA      0.183000
     85 HBB1       80.1426   61.0733   42.8788 da         1 CLA      0.183000
     86 HBA2       78.9614   58.1983   31.7261 dc         1 CLA      0.029400
     87 HBA1       79.9593   57.8858   33.0490 dc         1 CLA      0.029400
     88 HAC2       71.0304   58.0002   43.4615 dc         1 CLA      0.029300
     89 HAC1       70.1546   58.2391   42.0180 dc         1 CLA      0.029300
     90 HAA2       76.8674   57.6504   33.2621 dc         1 CLA      0.028700
     91 HAA1       77.8075   59.0754   33.6579 dc         1 CLA      0.028700
     92 H203       82.2176   61.3637   45.7987 dc         1 CLA      0.065600
     93 H202       82.0179   61.1358   43.9651 dc         1 CLA      0.065600
     94 H201       81.1354   60.0182   45.1628 dc         1 CLA      0.065600
     95 H193       84.5574   61.5581   44.8107 dc         1 CLA      0.065600
     96 H192       85.4810   60.0002   44.7475 dc         1 CLA      0.065600
     97 H191       84.5438   60.5900   43.3118 dc         1 CLA      0.065600
     98 H172       82.4571   57.6992   44.9170 dc         1 CLA      0.027600
     99 H171       84.1307   57.8931   44.5765 dc         1 CLA      0.027600
    100 H162       83.8158   58.2821   42.3074 dc         1 CLA      0.002900
    101 H161       82.2114   58.8364   42.4329 dc         1 CLA      0.002900
    102 H152       81.4105   56.5484   43.1386 dc         1 CLA      0.029100
    103 H151       83.0126   56.0602   43.0560 dc         1 CLA      0.029100
    104 H143       80.5541   56.7830   39.4804 dc         1 CLA      0.063600
    105 H142       80.1816   57.5077   41.0854 dc         1 CLA      0.063600
    106 H141       81.5551   58.0483   40.0081 dc         1 CLA      0.063600
    107 H122       83.9517   55.6145   40.7268 dc         1 CLA      0.032500
    108 H121       83.7961   57.1895   39.9159 dc         1 CLA      0.032500
    109 H112       82.2442   55.8617   38.2999 dc         1 CLA      0.006600
    110 H111       82.6087   54.3966   39.1014 dc         1 CLA      0.006600
    111 H102       84.8866   54.5944   38.1378 dc         1 CLA      0.024100
    112 H101       84.8046   56.2793   37.9717 dc         1 CLA      0.024100
    113 HHD        71.2182   57.4004   39.6489 da         1 CLA      0.174300
    114 HHC        75.5375   60.6801   42.6946 da         1 CLA      0.136800
    115 HHB        79.7548   59.7296   38.0965 da         1 CLA      0.138300
    116 HBD        74.9471   56.8846   33.6719 dc         1 CLA      0.107700
    117 HAB        77.3168   62.1893   43.2852 da         1 CLA      0.155200
    118 H93        85.4614   56.7736   35.7202 dc         1 CLA      0.069500
    119 H92        85.8372   55.1350   35.5233 dc         1 CLA      0.069500
    120 H91        84.5893   56.0765   34.4934 dc         1 CLA      0.069500
    121 H8         83.0841   56.1061   36.1978 dc         1 CLA      0.029300
    122 H72        82.3638   53.5835   36.3402 dc         1 CLA      0.044400
    123 H71        84.0520   53.2271   36.0634 dc         1 CLA      0.044400
    124 H62        84.0442   53.9173   33.6696 dc         1 CLA      0.015600
    125 H61        82.6210   54.6764   33.9458 dc         1 CLA      0.015600
    126 H52        82.9596   51.6766   34.4800 dc         1 CLA      0.033200
    127 H51        82.5193   52.3758   32.9089 dc         1 CLA      0.033200
    128 H43        79.4203   51.2062   34.3161 dc         1 CLA      0.037000
    129 H42        80.9966   50.3771   34.0949 dc         1 CLA      0.037000
    130 H41        80.3763   50.9495   35.7717 dc         1 CLA      0.037000
    131 H3A        79.3279   59.0664   35.2888 dc         1 CLA      0.041100
    132 H2A        78.2424   56.4286   35.1308 dc         1 CLA      0.083100
    133 H2         80.1493   54.1411   35.2620 da         1 CLA      0.180900
    134 H18        83.5833   59.7203   45.9928 dc         1 CLA     -0.003900
    135 H13        81.5923   55.3514   41.1663 dc         1 CLA      0.019700
    136 H12        78.5090   53.5651   32.8231 dc         1 CLA      0.120400
    137 H11        80.1655   53.7308   32.2472 dc         1 CLA      0.120400
    138 C1         67.2165   61.0385   49.4658 Z1         2 LUT      0.509236
    139 C2         67.3655   62.2151   50.4567 Z2         2 LUT     -0.434695
    140 C3         66.3087   63.3046   50.3988 Z3         2 LUT      0.437453
    141 O3         66.8989   64.5625   50.8439 S1         2 LUT     -0.547129
    142 C4         65.5310   63.4328   49.0885 Z4         2 LUT     -0.468603
    143 C5         66.2053   62.8139   47.9102 Z5         2 LUT      0.279246
    144 C6         67.0078   61.7415   48.1027 Z6         2 LUT     -0.305473
    145 C7         67.9184   61.3428   47.0133 Z7         2 LUT      0.069402
    146 C8         68.5152   62.1177   46.1301 Z8         2 LUT     -0.191631
    147 C9         69.2618   61.7996   44.8730 Z9         2 LUT      0.196698
    148 C10        70.1598   62.7642   44.3435 Y1         2 LUT     -0.208611
    149 C11        70.8385   62.6296   43.1477 Y2         2 LUT      0.030784
    150 C12        71.9685   63.3551   42.7695 Y3         2 LUT     -0.220316
    151 C13        72.8214   63.1335   41.6255 Y4         2 LUT      0.215937
    152 C14        74.0111   63.7626   41.3997 Y5         2 LUT     -0.185793
    153 C15        75.1468   63.5134   40.5724 Y6         2 LUT     -0.057835
    154 C16        65.9941   60.3325   50.1442 Y7         2 LUT     -0.405615
    155 C17        68.4138   60.0384   49.7139 Y7         2 LUT     -0.405615
    156 C18        65.8813   63.5159   46.6247 Y9         2 LUT     -0.369639
    157 C19        69.0367   60.4503   44.1803 W1         2 LUT     -0.333362
    158 C20        72.2218   62.3179   40.4542 W2         2 LUT     -0.323439
    159 C21        86.3652   64.3982   34.3173 Z1         2 LUT      0.406104
    160 C22        86.9310   63.7036   33.1048 Z2         2 LUT     -0.404965
    161 C23        87.0907   64.6286   31.8846 Z3         2 LUT      0.391255
    162 O23        87.2673   63.7294   30.7260 S1         2 LUT     -0.528210
    163 C24        85.8623   65.5601   31.6543 W6         2 LUT     -0.258361
    164 C25        84.9720   65.8460   32.6011 Z5         2 LUT      0.133546
    165 C26        84.9483   64.9789   33.8873 W8         2 LUT     -0.147008
    166 C27        84.2499   65.7336   34.9878 Z7         2 LUT      0.023843
    167 C28        83.0705   65.3356   35.5155 Z8         2 LUT     -0.216987
    168 C29        82.3559   65.8873   36.7082 Z9         2 LUT      0.206524
    169 C30        81.4458   65.0785   37.3302 Y1         2 LUT     -0.215556
    170 C31        80.7230   65.4074   38.4858 Y2         2 LUT      0.025142
    171 C32        79.6408   64.7305   38.9321 Y3         2 LUT     -0.212209
    172 C33        78.6423   64.9867   40.0211 Y4         2 LUT      0.240937
    173 C34        77.4559   64.2428   39.8836 Y5         2 LUT     -0.218862
    174 C35        76.2701   64.3021   40.6882 Y6         2 LUT     -0.023547
    175 C36        87.3997   65.4596   34.8785 Y7         2 LUT     -0.393485
    176 C37        86.1937   63.3060   35.5016 Y7         2 LUT     -0.393485
    177 C38        83.9136   66.9237   32.2698 Y9         2 LUT     -0.387526
    178 C39        82.8130   67.1274   37.2766 W1         2 LUT     -0.322618
    179 C40        79.0282   65.9412   41.1196 W2         2 LUT     -0.358472
    180 H403       80.0657   65.7921   41.5238 R7         2 LUT      0.097720
    181 H402       78.9084   66.9285   40.7076 R7         2 LUT      0.097720
    182 H401       78.4469   65.8374   42.0336 R7         2 LUT      0.097720
    183 H393       82.1303   67.6000   37.9342 R4         2 LUT      0.082505
    184 H392       83.8381   67.0332   37.6643 R4         2 LUT      0.082505
    185 H391       82.9204   67.7878   36.4322 R4         2 LUT      0.082505
    186 H383       84.2181   67.5127   31.3903 R1         2 LUT      0.104030
    187 H382       82.9697   66.4259   32.1296 R1         2 LUT      0.104030
    188 H381       83.8593   67.6432   32.9955 R1         2 LUT      0.104030
    189 H373       87.1263   62.8022   35.6715 T4         2 LUT      0.089537
    190 H372       85.7520   63.8291   36.3908 T4         2 LUT      0.089537
    191 H371       85.4478   62.5120   35.3492 T4         2 LUT      0.089537
    192 H363       87.6311   66.3295   34.2016 T4         2 LUT      0.089537
    193 H362       87.0173   65.9113   35.8145 T4         2 LUT      0.089537
    194 H361       88.2995   64.9010   35.0673 T4         2 LUT      0.089537
    195 H222       87.8379   63.0845   33.1594 U2         2 LUT      0.127376
    196 H221       86.2371   62.9640   32.6941 U2         2 LUT      0.127376
    197 H203       71.2231   62.7146   40.0815 R7         2 LUT      0.087068
    198 H202       72.7621   62.4309   39.5072 R7         2 LUT      0.087068
    199 H201       72.1843   61.2017   40.6727 R7         2 LUT      0.087068
    200 H193       69.8280   59.7688   44.5236 R4         2 LUT      0.089716
    201 H192       68.1652   59.9473   44.4800 R4         2 LUT      0.089716
    202 H191       68.9092   60.5095   43.1078 R4         2 LUT      0.089716
    203 H183       64.8020   63.8648   46.6935 R1         2 LUT      0.094572
    204 H182       66.4965   64.3672   46.4160 R1         2 LUT      0.094572
    205 H181       65.9120   62.8527   45.7577 R1         2 LUT      0.094572
    206 H173       68.6342   59.8704   50.8042 T4         2 LUT      0.093752
    207 H172       68.3078   59.0881   49.1629 T4         2 LUT      0.093752
    208 H171       69.3272   60.5307   49.4042 T4         2 LUT      0.093752
    209 H163       65.1022   60.9873   50.0779 T4         2 LUT      0.093752
    210 H162       65.7826   59.4067   49.6485 T4         2 LUT      0.093752
    211 H161       66.0888   60.1499   51.1786 T4         2 LUT      0.093752
    212 HO3        66.1954   65.0886   51.2331 Q1         2 LUT      0.300121
    213 H8         68.5136   63.2471   46.1606 U7         2 LUT      0.080784
    214 H7         68.1428   60.2512   46.8985 U6         2 LUT      0.042190
    215 H42        64.5741   62.8722   49.2173 U5         2 LUT      0.145166
    216 H41        65.3155   64.4690   48.8354 U5         2 LUT      0.145166
    217 H35        76.2611   65.1954   41.3208 T3         2 LUT      0.077919
    218 H34        77.5534   63.4627   39.1986 T2         2 LUT      0.073626
    219 H32        79.3352   63.8458   38.3256 T1         2 LUT      0.092510
    220 H31        80.9671   66.2743   39.0377 U9         2 LUT      0.070048
    221 H30        81.1752   64.0644   37.0422 U8         2 LUT      0.085442
    222 H3         65.5396   62.9203   51.1198 U3         2 LUT     -0.031596
    223 H28        82.5782   64.4316   35.1652 U7         2 LUT      0.084728
    224 H27        84.6877   66.6021   35.3015 U6         2 LUT      0.087291
    225 H26        84.3812   64.0956   33.7367 Q6         2 LUT      0.075325
    226 H24        85.8017   66.1438   30.7508 Q5         2 LUT      0.094482
    227 H23        88.1131   65.1747   31.9490 U3         2 LUT     -0.024869
    228 H22        67.4571   61.8901   51.4987 U2         2 LUT      0.127376
    229 H21        68.3070   62.6884   50.1377 U2         2 LUT      0.127376
    230 H15        75.0220   62.7928   39.8105 T3         2 LUT      0.093200
    231 H14        74.1277   64.6028   42.0468 T2         2 LUT      0.068865
    232 H12        72.3461   64.0510   43.5594 T1         2 LUT      0.095507
    233 H11        70.5676   61.8090   42.4741 U9         2 LUT      0.068930
    234 H10        70.2906   63.6819   44.8212 U8         2 LUT      0.083911
    235 H1         87.4525   64.2665   29.9624 Q1         2 LUT      0.297311
@<TRIPOS>BOND
    1     6     1 1
    2     7     2 1
    3     8     3 1
    4     9     4 1
    5    11     4 1
    6    12     6 1
    7    13     9 1
    8    16     9 1
    9    25     5 1
   10    25    16 1
   11    26    10 1
   12    26    17 1
   13    27    18 1
   14    28    14 1
   15    28    19 1
   16    29    12 1
   17    30    13 1
   18    31    24 1
   19    32     1 1
   20    32    25 1
   21    33    21 1
   22    33    26 1
   23    34    22 1
   24    34    27 1
   25    35    23 1
   26    35    28 1
   27    36    12 1
   28    36    24 1
   29    37    13 1
   30    37    15 1
   31    38    31 1
   32    39    20 1
   33    39    32 1
   34    40     2 1
   35    40    33 1
   36    41     3 1
   37    41    34 1
   38    42     4 1
   39    42    35 1
   40    43    38 1
   41    44     5 1
   42    44    17 1
   43    44    39 1
   44    45    10 1
   45    45    18 1
   46    45    40 1
   47    46    19 1
   48    46    41 1
   49    47    14 1
   50    47    16 1
   51    47    42 1
   52    48    38 1
   53    49    48 1
   54    50    49 1
   55    51    50 1
   56    52    51 1
   57    53    51 1
   58    54    53 1
   59    55    54 1
   60    56    55 1
   61    57    56 1
   62    58    56 1
   63    59    58 1
   64    60    59 1
   65    61    60 1
   66    62    61 1
   67    63    61 1
   68    64    27 1
   69    64    46 1
   70    65     5 1
   71    65    10 1
   72    65    64 1
   73    65    14 1
   74    66    23 1
   75    67    23 1
   76    68    23 1
   77    69    22 1
   78    70    22 1
   79    71    22 1
   80    72    21 1
   81    73    21 1
   82    74    21 1
   83    75    20 1
   84    76    20 1
   85    77    20 1
   86    78    15 1
   87    79    15 1
   88    80    15 1
   89    81     8 1
   90    82     8 1
   91    83     8 1
   92    84     7 1
   93    85     7 1
   94    86     6 1
   95    87     6 1
   96    88     3 1
   97    89     3 1
   98    90     1 1
   99    91     1 1
  100    92    63 1
  101    93    63 1
  102    94    63 1
  103    95    62 1
  104    96    62 1
  105    97    62 1
  106    98    60 1
  107    99    60 1
  108   100    59 1
  109   101    59 1
  110   102    58 1
  111   103    58 1
  112   104    57 1
  113   105    57 1
  114   106    57 1
  115   107    55 1
  116   108    55 1
  117   109    54 1
  118   110    54 1
  119   111    53 1
  120   112    53 1
  121   113    19 1
  122   114    18 1
  123   115    17 1
  124   116     9 1
  125   117     2 1
  126   118    52 1
  127   119    52 1
  128   120    52 1
  129   121    51 1
  130   122    50 1
  131   123    50 1
  132   124    49 1
  133   125    49 1
  134   126    48 1
  135   127    48 1
  136   128    43 1
  137   129    43 1
  138   130    43 1
  139   131    39 1
  140   132    32 1
  141   133    31 1
  142   134    61 1
  143   135    56 1
  144   136    24 1
  145   137    24 1
  146   139   138 1
  147   140   139 1
  148   141   140 1
  149   142   140 1
  150   143   142 1
  151   144   138 1
  152   144   143 1
  153   145   144 1
  154   146   145 1
  155   147   146 1
  156   148   147 1
  157   149   148 1
  158   150   149 1
  159   151   150 1
  160   152   151 1
  161   153   152 1
  162   154   138 1
  163   155   138 1
  164   156   143 1
  165   157   147 1
  166   158   151 1
  167   160   159 1
  168   161   160 1
  169   162   161 1
  170   163   161 1
  171   164   163 1
  172   165   159 1
  173   165   164 1
  174   166   165 1
  175   167   166 1
  176   168   167 1
  177   169   168 1
  178   170   169 1
  179   171   170 1
  180   172   171 1
  181   173   172 1
  182   174   153 1
  183   174   173 1
  184   175   159 1
  185   176   159 1
  186   177   164 1
  187   178   168 1
  188   179   172 1
  189   180   179 1
  190   181   179 1
  191   182   179 1
  192   183   178 1
  193   184   178 1
  194   185   178 1
  195   186   177 1
  196   187   177 1
  197   188   177 1
  198   189   176 1
  199   190   176 1
  200   191   176 1
  201   192   175 1
  202   193   175 1
  203   194   175 1
  204   195   160 1
  205   196   160 1
  206   197   158 1
  207   198   158 1
  208   199   158 1
  209   200   157 1
  210   201   157 1
  211   202   157 1
  212   203   156 1
  213   204   156 1
  214   205   156 1
  215   206   155 1
  216   207   155 1
  217   208   155 1
  218   209   154 1
  219   210   154 1
  220   211   154 1
  221   212   141 1
  222   213   146 1
  223   214   145 1
  224   215   142 1
  225   216   142 1
  226   217   174 1
  227   218   173 1
  228   219   171 1
  229   220   170 1
  230   221   169 1
  231   222   140 1
  232   223   167 1
  233   224   166 1
  234   225   165 1
  235   226   163 1
  236   227   161 1
  237   228   139 1
  238   229   139 1
  239   230   153 1
  240   231   152 1
  241   232   150 1
  242   233   149 1
  243   234   148 1
  244   235   162 1
  245   65    153 1
  246   65    174 1
@<TRIPOS>SUBSTRUCTURE
      1 CLA               1 ****               0 ****  **** 
      2 LUT             138 ****               0 ****  **** 
