@<TRIPOS>MOLECULE
Cpptraj generated mol2 file.
  235   246     2     0     0
SMALL
USER_CHARGES


@<TRIPOS>ATOM
      1 CAA        78.9163   57.9046   35.0175 a2         1 CLA     -0.055900
      2 CAB        78.2244   61.7999   43.9552 c8         1 CLA     -0.148500
      3 CAC        71.4512   57.4350   43.2179 a2         1 CLA     -0.012600
      4 CAD        75.0061   55.1777   36.2143 ck         1 CLA      0.398800
      5 NA         77.7537   58.4494   38.3395 ns         1 CLA     -0.225500
      6 CBA        80.1042   57.7745   34.0376 a2         1 CLA     -0.135000
      7 CBB        78.2558   61.0788   45.0967 c0         1 CLA     -0.395200
      8 CBC        71.6526   55.9451   43.2902 a3         1 CLA     -0.037700
      9 CBD        76.4980   55.6827   36.0690 a1         1 CLA     -0.053900
     10 NB         77.3259   59.7298   41.0547 nm         1 CLA     -0.295700
     11 OBD        74.5030   54.2994   35.4799 o2         1 CLA     -0.494600
     12 CGA        80.7584   56.4990   33.7674 c4         1 CLA      0.827000
     13 CGD        77.5209   54.5630   36.3804 c4         1 CLA      0.655300
     14 ND         74.9952   57.4692   38.8763 nm         1 CLA     -0.291600
     15 CED        77.8448   52.6403   37.7955 a3         1 CLA      0.005400
     16 CHA        76.6404   56.8546   37.0069 cs         1 CLA     -0.123800
     17 CHB        79.2400   59.9167   39.5208 aa         1 CLA     -0.291900
     18 CHC        75.8155   60.0055   43.0384 aa         1 CLA     -0.090400
     19 CHD        72.9842   57.1985   40.3080 aa         1 CLA     -0.052000
     20 CMA        81.1945   58.4317   37.8209 a3         1 CLA     -0.230700
     21 CMB        80.3577   61.8497   41.6779 a3         1 CLA     -0.180800
     22 CMC        73.1978   59.6216   44.9161 a3         1 CLA     -0.134000
     23 CMD        72.0190   55.3039   37.9926 a3         1 CLA     -0.141100
     24 C1         82.1416   54.8457   34.7722 a2         1 CLA      0.023000
     25 C1A        77.7194   57.6808   37.2351 ac         1 CLA     -0.015100
     26 C1B        78.6076   60.2021   40.6992 cr         1 CLA      0.054700
     27 C1C        74.6946   59.2608   42.6476 cn         1 CLA     -0.005600
     28 C1D        73.7525   56.8722   39.1289 ap         1 CLA     -0.047300
     29 O1A        80.6285   55.8239   32.7573 o2         1 CLA     -0.610800
     30 O1D        78.5764   54.2427   35.7913 o2         1 CLA     -0.558200
     31 C2         82.8448   54.6310   36.1025 c8         1 CLA     -0.325100
     32 C2A        79.1149   57.6772   36.4945 a1         1 CLA      0.098600
     33 C2B        79.0775   61.1460   41.6853 cb         1 CLA      0.088500
     34 C2C        73.5008   59.0560   43.4981 cb         1 CLA      0.053700
     35 C2D        73.3611   56.0070   38.0601 cb         1 CLA      0.058900
     36 O2A        81.5293   56.1237   34.8182 o1         1 CLA     -0.437200
     37 O2D        77.1866   53.9205   37.5375 o1         1 CLA     -0.357600
     38 C3         83.6000   53.6257   36.6381 c5         1 CLA      0.031200
     39 C3A        79.8189   58.8387   37.2852 a1         1 CLA      0.166800
     40 C3B        78.0979   61.1281   42.6483 cb         1 CLA      0.035000
     41 C3C        72.7370   58.1390   42.7504 cb         1 CLA     -0.089900
     42 C3D        74.4806   55.9286   37.3123 cb         1 CLA     -0.035900
     43 C4         83.0463   52.4395   37.3173 a3         1 CLA     -0.053300
     44 C4A        78.8481   59.1485   38.4185 ac         1 CLA      0.001800
     45 C4B        77.0373   60.2300   42.2914 cn         1 CLA     -0.020900
     46 C4C        73.3756   57.9637   41.4641 cr         1 CLA     -0.044400
     47 C4D        75.4773   56.8253   37.7516 c6         1 CLA     -0.046000
     48 C5         85.0943   53.6765   36.4045 a2         1 CLA     -0.070400
     49 C6         85.8828   54.8266   37.0300 a2         1 CLA      0.043900
     50 C7         85.6496   55.0418   38.4676 a2         1 CLA     -0.150000
     51 C8         86.5089   56.1986   39.1422 a1         1 CLA      0.064200
     52 C9         87.9992   55.8000   39.3766 a3         1 CLA     -0.259300
     53 C10        85.8574   56.5019   40.5514 a2         1 CLA     -0.071900
     54 C11        84.5470   57.3744   40.6690 a2         1 CLA      0.014500
     55 C12        84.3959   58.1729   41.8986 a2         1 CLA     -0.112100
     56 C13        84.7363   57.3533   43.1874 a1         1 CLA      0.089200
     57 C14        83.6580   56.2666   43.3392 a3         1 CLA     -0.239100
     58 C15        84.8070   58.2053   44.4400 a2         1 CLA     -0.102200
     59 C16        83.5464   58.8904   44.8679 a2         1 CLA      0.023900
     60 C17        83.6206   59.9461   45.9899 a2         1 CLA     -0.105700
     61 C18        82.3343   60.8070   46.2995 a1         1 CLA      0.206800
     62 C19        81.1246   59.8889   46.5918 a3         1 CLA     -0.280100
     63 C20        82.5812   61.6493   47.5886 a3         1 CLA     -0.280100
     64 NC         74.5415   58.7273   41.4341 nx         1 CLA     -0.309200
     65 MG         76.0575   58.6364   39.8467 mg         1 CLA      0.895000
     66 HMD3       72.1472   54.3791   37.4361 dc         1 CLA      0.064300
     67 HMD2       71.6637   55.0508   38.9813 dc         1 CLA      0.064300
     68 HMD1       71.1185   55.8155   37.5509 dc         1 CLA      0.064300
     69 HMC3       73.7057   60.5345   45.0637 dc         1 CLA      0.052100
     70 HMC2       72.1419   59.6226   45.1014 dc         1 CLA      0.052100
     71 HMC1       73.6259   58.9274   45.5825 dc         1 CLA      0.052100
     72 HMB3       81.0376   61.1287   42.1382 dc         1 CLA      0.063600
     73 HMB2       80.5476   62.1911   40.6890 dc         1 CLA      0.063600
     74 HMB1       80.2912   62.7471   42.3359 dc         1 CLA      0.063600
     75 HMA3       81.8728   58.0452   37.0738 dc         1 CLA      0.058300
     76 HMA2       81.7108   59.2821   38.2954 dc         1 CLA      0.058300
     77 HMA1       81.0085   57.7161   38.6448 dc         1 CLA      0.058300
     78 HED3       77.6520   51.8994   37.0069 dc         1 CLA      0.079300
     79 HED2       78.8538   52.8125   37.9724 dc         1 CLA      0.079300
     80 HED1       77.4049   52.2371   38.6839 dc         1 CLA      0.079300
     81 HBC3       71.8658   55.4848   42.2749 dc         1 CLA      0.016300
     82 HBC2       72.5619   55.7212   43.8997 dc         1 CLA      0.016300
     83 HBC1       70.7090   55.4343   43.7164 dc         1 CLA      0.016300
     84 HBB2       78.3905   61.4739   46.0884 da         1 CLA      0.183000
     85 HBB1       78.1232   59.9760   45.0455 da         1 CLA      0.183000
     86 HBA2       79.6680   58.0617   33.0924 dc         1 CLA      0.029400
     87 HBA1       80.9028   58.4384   34.4046 dc         1 CLA      0.029400
     88 HAC2       71.1802   57.8309   44.1282 dc         1 CLA      0.029300
     89 HAC1       70.6612   57.6546   42.4750 dc         1 CLA      0.029300
     90 HAA2       78.2052   57.2320   34.6695 dc         1 CLA      0.028700
     91 HAA1       78.4762   58.8547   34.8952 dc         1 CLA      0.028700
     92 H203       81.6417   62.1708   47.7962 dc         1 CLA      0.065600
     93 H202       82.9769   61.0075   48.3900 dc         1 CLA      0.065600
     94 H201       83.2849   62.4464   47.4297 dc         1 CLA      0.065600
     95 H193       81.4946   59.3323   47.4533 dc         1 CLA      0.065600
     96 H192       80.3332   60.5317   46.8293 dc         1 CLA      0.065600
     97 H191       80.8578   59.2566   45.7775 dc         1 CLA      0.065600
     98 H172       83.8757   59.2722   46.8521 dc         1 CLA      0.027600
     99 H171       84.5721   60.5879   45.7679 dc         1 CLA      0.027600
    100 H162       82.9986   59.2948   44.0156 dc         1 CLA      0.002900
    101 H161       82.8865   58.1067   45.1622 dc         1 CLA      0.002900
    102 H152       85.0795   57.6516   45.3240 dc         1 CLA      0.029100
    103 H151       85.5041   58.9674   44.2264 dc         1 CLA      0.029100
    104 H143       82.7218   56.7289   43.4139 dc         1 CLA      0.063600
    105 H142       83.5997   55.6660   42.4486 dc         1 CLA      0.063600
    106 H141       83.8445   55.6212   44.1748 dc         1 CLA      0.063600
    107 H122       85.1436   58.9945   41.8165 dc         1 CLA      0.032500
    108 H121       83.4342   58.6497   41.8584 dc         1 CLA      0.032500
    109 H112       84.6840   58.1843   39.8509 dc         1 CLA      0.006600
    110 H111       83.7055   56.7518   40.4146 dc         1 CLA      0.006600
    111 H102       85.6657   55.6209   41.0602 dc         1 CLA      0.024100
    112 H101       86.5078   57.0754   41.1968 dc         1 CLA      0.024100
    113 HHD        72.0653   56.6825   40.4665 da         1 CLA      0.174300
    114 HHC        75.8106   60.4604   44.0434 da         1 CLA      0.136800
    115 HHB        80.2492   60.2894   39.4168 da         1 CLA      0.138300
    116 HBD        76.6086   55.9014   35.0091 dc         1 CLA      0.107700
    117 HAB        78.3435   62.8852   43.9290 da         1 CLA      0.155200
    118 H93        88.5316   56.5107   40.0662 dc         1 CLA      0.069500
    119 H92        88.1827   54.8512   39.8752 dc         1 CLA      0.069500
    120 H91        88.4507   55.7555   38.3739 dc         1 CLA      0.069500
    121 H8         86.3649   57.0854   38.4840 dc         1 CLA      0.029300
    122 H72        84.6152   55.2238   38.5829 dc         1 CLA      0.044400
    123 H71        85.8860   54.1437   38.9786 dc         1 CLA      0.044400
    124 H62        86.9475   54.7470   36.8791 dc         1 CLA      0.015600
    125 H61        85.5494   55.7516   36.5620 dc         1 CLA      0.015600
    126 H52        85.4831   52.7682   36.8508 dc         1 CLA      0.033200
    127 H51        85.3007   53.6199   35.3692 dc         1 CLA      0.033200
    128 H43        83.5749   51.4364   37.0534 dc         1 CLA      0.037000
    129 H42        83.1639   52.5594   38.3981 dc         1 CLA      0.037000
    130 H41        82.0164   52.2281   37.1878 dc         1 CLA      0.037000
    131 H3A        79.9757   59.7179   36.6341 dc         1 CLA      0.041100
    132 H2A        79.6211   56.7848   36.6692 dc         1 CLA      0.083100
    133 H2         82.6722   55.4120   36.9010 da         1 CLA      0.180900
    134 H18        82.1535   61.5620   45.5108 dc         1 CLA     -0.003900
    135 H13        85.6357   56.7732   43.2463 dc         1 CLA      0.019700
    136 H12        81.2500   54.1879   34.7410 dc         1 CLA      0.120400
    137 H11        82.6585   54.7020   33.8492 dc         1 CLA      0.120400
    138 C1         68.1159   61.3755   50.4176 Z1         2 LUT      0.509236
    139 C2         66.6659   61.0690   50.8672 Z2         2 LUT     -0.434695
    140 C3         65.7889   62.3145   51.0469 Z3         2 LUT      0.437453
    141 O3         65.7628   62.7811   52.4677 S1         2 LUT     -0.547129
    142 C4         66.2253   63.4625   50.1196 Z4         2 LUT     -0.468603
    143 C5         67.0073   63.0826   48.9578 Z5         2 LUT      0.279246
    144 C6         67.9818   62.1696   49.1088 Z6         2 LUT     -0.305473
    145 C7         68.3625   61.4336   47.8370 Z7         2 LUT      0.069402
    146 C8         69.1436   61.9351   46.8476 Z8         2 LUT     -0.191631
    147 C9         69.5708   61.3930   45.6238 Z9         2 LUT      0.196698
    148 C10        70.5766   62.1580   45.0282 Y1         2 LUT     -0.208611
    149 C11        71.2163   61.9371   43.7935 Y2         2 LUT      0.030784
    150 C12        72.3000   62.6610   43.4858 Y3         2 LUT     -0.220316
    151 C13        73.2464   62.4585   42.3403 Y4         2 LUT      0.215937
    152 C14        74.2623   63.4088   42.2716 Y5         2 LUT     -0.185793
    153 C15        75.4066   63.4369   41.3921 Y6         2 LUT     -0.057835
    154 C16        68.7573   59.9178   50.5069 Y7         2 LUT     -0.405615
    155 C17        68.6851   62.2257   51.6020 Y7         2 LUT     -0.405615
    156 C18        66.3994   63.4710   47.6155 Y9         2 LUT     -0.369639
    157 C19        69.0497   60.1938   44.8676 W1         2 LUT     -0.333362
    158 C20        72.6660   61.7968   41.1035 W2         2 LUT     -0.323439
    159 C21        87.1059   65.0063   35.6670 Z1         2 LUT      0.406104
    160 C22        87.9093   64.4087   34.4907 Z2         2 LUT     -0.404965
    161 C23        88.1155   65.3518   33.2947 Z3         2 LUT      0.391255
    162 O23        88.6248   64.4680   32.3677 S1         2 LUT     -0.528210
    163 C24        86.8790   66.1226   32.8795 W6         2 LUT     -0.258361
    164 C25        85.7794   66.1813   33.6821 Z5         2 LUT      0.133546
    165 C26        85.6701   65.4691   35.0727 W8         2 LUT     -0.147008
    166 C27        84.8227   66.1759   36.0484 Z7         2 LUT      0.023843
    167 C28        83.7768   65.6404   36.7569 Z8         2 LUT     -0.216987
    168 C29        83.2620   65.9900   38.0560 Z9         2 LUT      0.206524
    169 C30        81.9690   65.3411   38.3900 Y1         2 LUT     -0.215556
    170 C31        81.1031   65.5811   39.5282 Y2         2 LUT      0.025142
    171 C32        79.9115   64.9374   39.7118 Y3         2 LUT     -0.212209
    172 C33        78.8650   64.9482   40.7225 Y4         2 LUT      0.240937
    173 C34        77.6997   64.1822   40.6935 Y5         2 LUT     -0.218862
    174 C35        76.5442   64.1525   41.6299 Y6         2 LUT     -0.023547
    175 C36        87.8755   66.2715   36.2826 Y7         2 LUT     -0.393485
    176 C37        86.9272   63.8415   36.7215 Y7         2 LUT     -0.393485
    177 C38        84.5370   67.0062   33.1563 Y9         2 LUT     -0.387526
    178 C39        83.8928   67.1016   38.9057 W1         2 LUT     -0.322618
    179 C40        79.0330   65.8753   41.9432 W2         2 LUT     -0.358472
    180 H403       80.0425   66.0251   42.1533 R7         2 LUT      0.097720
    181 H402       78.5559   66.8414   41.8354 R7         2 LUT      0.097720
    182 H401       78.4951   65.5302   42.8223 R7         2 LUT      0.097720
    183 H393       83.6851   68.0505   38.5226 R4         2 LUT      0.082505
    184 H392       83.6045   67.0445   39.9126 R4         2 LUT      0.082505
    185 H391       84.9795   67.0193   38.8500 R4         2 LUT      0.082505
    186 H383       83.5476   66.5020   33.3984 R1         2 LUT      0.104030
    187 H382       84.5125   67.9293   33.6425 R1         2 LUT      0.104030
    188 H381       84.7368   67.2085   32.1542 R1         2 LUT      0.104030
    189 H373       86.7252   62.8288   36.2278 T4         2 LUT      0.089537
    190 H372       87.6795   63.6525   37.4726 T4         2 LUT      0.089537
    191 H371       86.0690   64.0780   37.3386 T4         2 LUT      0.089537
    192 H363       88.7731   66.0107   36.7457 T4         2 LUT      0.089537
    193 H362       88.1426   66.9710   35.4986 T4         2 LUT      0.089537
    194 H361       87.3635   66.8746   37.0123 T4         2 LUT      0.089537
    195 H222       88.9479   64.2458   34.7817 U2         2 LUT      0.127376
    196 H221       87.3388   63.5582   34.0826 U2         2 LUT      0.127376
    197 H203       73.3206   61.8154   40.1769 R7         2 LUT      0.087068
    198 H202       72.3578   60.6981   41.1294 R7         2 LUT      0.087068
    199 H201       71.7305   62.3682   40.8325 R7         2 LUT      0.087068
    200 H193       68.3024   59.6797   45.4001 R4         2 LUT      0.089716
    201 H192       68.6997   60.3014   43.8064 R4         2 LUT      0.089716
    202 H191       69.9117   59.5332   44.7988 R4         2 LUT      0.089716
    203 H183       65.3332   63.5934   47.6863 R1         2 LUT      0.094572
    204 H182       66.8105   64.4769   47.3650 R1         2 LUT      0.094572
    205 H181       66.6478   62.7993   46.7980 R1         2 LUT      0.094572
    206 H173       68.2736   61.9059   52.5493 T4         2 LUT      0.093752
    207 H172       69.7921   62.2302   51.5978 T4         2 LUT      0.093752
    208 H171       68.4329   63.2896   51.6737 T4         2 LUT      0.093752
    209 H163       68.1950   59.2812   49.8094 T4         2 LUT      0.093752
    210 H162       69.7940   59.8531   50.0897 T4         2 LUT      0.093752
    211 H161       68.6511   59.2857   51.3879 T4         2 LUT      0.093752
    212 HO3        65.1714   62.1724   52.9407 Q1         2 LUT      0.300121
    213 H8         69.4973   62.9704   47.0888 U7         2 LUT      0.080784
    214 H7         68.0238   60.4289   47.7539 U6         2 LUT      0.042190
    215 H42        65.2689   63.9279   49.8917 U5         2 LUT      0.145166
    216 H41        66.7692   64.3041   50.7802 U5         2 LUT      0.145166
    217 H35        76.6366   64.6906   42.5471 T3         2 LUT      0.077919
    218 H34        77.6482   63.5216   39.8455 T2         2 LUT      0.073626
    219 H32        79.6393   64.1693   38.9203 T1         2 LUT      0.092510
    220 H31        81.3863   66.3285   40.2484 U9         2 LUT      0.070048
    221 H30        81.6322   64.6200   37.5892 U8         2 LUT      0.085442
    222 H3         64.7574   62.1029   50.6696 U3         2 LUT     -0.031596
    223 H28        83.4127   64.6777   36.3353 U7         2 LUT      0.084728
    224 H27        85.2711   67.0978   36.4625 U6         2 LUT      0.087291
    225 H26        85.1703   64.6320   34.7055 Q6         2 LUT      0.075325
    226 H24        86.8049   66.5078   31.8349 Q5         2 LUT      0.094482
    227 H23        88.8996   66.0574   33.5032 U3         2 LUT     -0.024869
    228 H22        66.2071   60.4908   50.0969 U2         2 LUT      0.127376
    229 H21        66.5709   60.4341   51.7793 U2         2 LUT      0.127376
    230 H15        75.2571   62.9267   40.4436 T3         2 LUT      0.093200
    231 H14        74.1490   64.3061   42.9785 T2         2 LUT      0.068865
    232 H12        72.4499   63.4643   44.1823 T1         2 LUT      0.095507
    233 H11        70.8240   61.1662   43.1409 U9         2 LUT      0.068930
    234 H10        71.0448   62.9199   45.6545 U8         2 LUT      0.083911
    235 H1         88.7041   64.8248   31.4351 Q1         2 LUT      0.297311
@<TRIPOS>BOND
    1     6     1 1
    2     7     2 1
    3     8     3 1
    4     9     4 1
    5    11     4 1
    6    12     6 1
    7    13     9 1
    8    16     9 1
    9    25     5 1
   10    25    16 1
   11    26    10 1
   12    26    17 1
   13    27    18 1
   14    28    14 1
   15    28    19 1
   16    29    12 1
   17    30    13 1
   18    31    24 1
   19    32     1 1
   20    32    25 1
   21    33    21 1
   22    33    26 1
   23    34    22 1
   24    34    27 1
   25    35    23 1
   26    35    28 1
   27    36    12 1
   28    36    24 1
   29    37    13 1
   30    37    15 1
   31    38    31 1
   32    39    20 1
   33    39    32 1
   34    40     2 1
   35    40    33 1
   36    41     3 1
   37    41    34 1
   38    42     4 1
   39    42    35 1
   40    43    38 1
   41    44     5 1
   42    44    17 1
   43    44    39 1
   44    45    10 1
   45    45    18 1
   46    45    40 1
   47    46    19 1
   48    46    41 1
   49    47    14 1
   50    47    16 1
   51    47    42 1
   52    48    38 1
   53    49    48 1
   54    50    49 1
   55    51    50 1
   56    52    51 1
   57    53    51 1
   58    54    53 1
   59    55    54 1
   60    56    55 1
   61    57    56 1
   62    58    56 1
   63    59    58 1
   64    60    59 1
   65    61    60 1
   66    62    61 1
   67    63    61 1
   68    64    27 1
   69    64    46 1
   70    65     5 1
   71    65    10 1
   72    65    64 1
   73    65    14 1
   74    66    23 1
   75    67    23 1
   76    68    23 1
   77    69    22 1
   78    70    22 1
   79    71    22 1
   80    72    21 1
   81    73    21 1
   82    74    21 1
   83    75    20 1
   84    76    20 1
   85    77    20 1
   86    78    15 1
   87    79    15 1
   88    80    15 1
   89    81     8 1
   90    82     8 1
   91    83     8 1
   92    84     7 1
   93    85     7 1
   94    86     6 1
   95    87     6 1
   96    88     3 1
   97    89     3 1
   98    90     1 1
   99    91     1 1
  100    92    63 1
  101    93    63 1
  102    94    63 1
  103    95    62 1
  104    96    62 1
  105    97    62 1
  106    98    60 1
  107    99    60 1
  108   100    59 1
  109   101    59 1
  110   102    58 1
  111   103    58 1
  112   104    57 1
  113   105    57 1
  114   106    57 1
  115   107    55 1
  116   108    55 1
  117   109    54 1
  118   110    54 1
  119   111    53 1
  120   112    53 1
  121   113    19 1
  122   114    18 1
  123   115    17 1
  124   116     9 1
  125   117     2 1
  126   118    52 1
  127   119    52 1
  128   120    52 1
  129   121    51 1
  130   122    50 1
  131   123    50 1
  132   124    49 1
  133   125    49 1
  134   126    48 1
  135   127    48 1
  136   128    43 1
  137   129    43 1
  138   130    43 1
  139   131    39 1
  140   132    32 1
  141   133    31 1
  142   134    61 1
  143   135    56 1
  144   136    24 1
  145   137    24 1
  146   139   138 1
  147   140   139 1
  148   141   140 1
  149   142   140 1
  150   143   142 1
  151   144   138 1
  152   144   143 1
  153   145   144 1
  154   146   145 1
  155   147   146 1
  156   148   147 1
  157   149   148 1
  158   150   149 1
  159   151   150 1
  160   152   151 1
  161   153   152 1
  162   154   138 1
  163   155   138 1
  164   156   143 1
  165   157   147 1
  166   158   151 1
  167   160   159 1
  168   161   160 1
  169   162   161 1
  170   163   161 1
  171   164   163 1
  172   165   159 1
  173   165   164 1
  174   166   165 1
  175   167   166 1
  176   168   167 1
  177   169   168 1
  178   170   169 1
  179   171   170 1
  180   172   171 1
  181   173   172 1
  182   174   153 1
  183   174   173 1
  184   175   159 1
  185   176   159 1
  186   177   164 1
  187   178   168 1
  188   179   172 1
  189   180   179 1
  190   181   179 1
  191   182   179 1
  192   183   178 1
  193   184   178 1
  194   185   178 1
  195   186   177 1
  196   187   177 1
  197   188   177 1
  198   189   176 1
  199   190   176 1
  200   191   176 1
  201   192   175 1
  202   193   175 1
  203   194   175 1
  204   195   160 1
  205   196   160 1
  206   197   158 1
  207   198   158 1
  208   199   158 1
  209   200   157 1
  210   201   157 1
  211   202   157 1
  212   203   156 1
  213   204   156 1
  214   205   156 1
  215   206   155 1
  216   207   155 1
  217   208   155 1
  218   209   154 1
  219   210   154 1
  220   211   154 1
  221   212   141 1
  222   213   146 1
  223   214   145 1
  224   215   142 1
  225   216   142 1
  226   217   174 1
  227   218   173 1
  228   219   171 1
  229   220   170 1
  230   221   169 1
  231   222   140 1
  232   223   167 1
  233   224   166 1
  234   225   165 1
  235   226   163 1
  236   227   161 1
  237   228   139 1
  238   229   139 1
  239   230   153 1
  240   231   152 1
  241   232   150 1
  242   233   149 1
  243   234   148 1
  244   235   162 1
  245   65    153 1
  246   65    174 1
@<TRIPOS>SUBSTRUCTURE
      1 CLA               1 ****               0 ****  **** 
      2 LUT             138 ****               0 ****  **** 
