@<TRIPOS>MOLECULE
Cpptraj generated mol2 file.
  235   246     2     0     0
SMALL
USER_CHARGES


@<TRIPOS>ATOM
      1 CAA        77.4381   58.0953   34.8766 a2         1 CLA     -0.055900
      2 CAB        77.4666   62.3008   43.6863 c8         1 CLA     -0.148500
      3 CAC        70.6571   58.4608   43.2330 a2         1 CLA     -0.012600
      4 CAD        73.2388   55.5898   36.0665 ck         1 CLA      0.398800
      5 NA         76.4013   58.7640   38.1697 ns         1 CLA     -0.225500
      6 CBA        78.6955   57.7998   34.0726 a2         1 CLA     -0.135000
      7 CBB        78.6295   62.5688   44.3527 c0         1 CLA     -0.395200
      8 CBC        70.5824   56.9695   43.5159 a3         1 CLA     -0.037700
      9 CBD        74.7806   56.0289   35.8528 a1         1 CLA     -0.053900
     10 NB         76.4745   60.4321   40.6067 nm         1 CLA     -0.295700
     11 OBD        72.6126   54.7627   35.4108 o2         1 CLA     -0.494600
     12 CGA        79.0235   56.3566   33.7898 c4         1 CLA      0.827000
     13 CGD        75.6118   54.7797   36.0061 c4         1 CLA      0.655300
     14 ND         73.5755   57.7834   38.7528 nm         1 CLA     -0.291600
     15 CED        75.9449   52.8888   37.4836 a3         1 CLA      0.005400
     16 CHA        75.1070   57.1117   36.8736 cs         1 CLA     -0.123800
     17 CHB        78.2261   60.1053   39.0884 aa         1 CLA     -0.291900
     18 CHC        75.1852   60.5823   42.6214 aa         1 CLA     -0.090400
     19 CHD        71.7641   57.8952   40.3831 aa         1 CLA     -0.052000
     20 CMA        79.7007   57.7401   37.5959 a3         1 CLA     -0.230700
     21 CMB        79.7287   62.1322   40.9809 a3         1 CLA     -0.180800
     22 CMC        73.0708   59.9478   44.8768 a3         1 CLA     -0.134000
     23 CMD        70.3455   55.8770   38.1777 a3         1 CLA     -0.141100
     24 C1         79.7859   54.2583   34.6621 a2         1 CLA      0.023000
     25 C1A        76.2454   57.8714   37.1018 ac         1 CLA     -0.015100
     26 C1B        77.7156   60.6586   40.2674 cr         1 CLA      0.054700
     27 C1C        73.9986   59.8434   42.4128 cn         1 CLA     -0.005600
     28 C1D        72.2645   57.4315   39.1268 ap         1 CLA     -0.047300
     29 O1A        78.7173   55.7915   32.7636 o2         1 CLA     -0.610800
     30 O1D        76.2564   54.2311   35.0772 o2         1 CLA     -0.558200
     31 C2         79.7688   53.5569   35.9370 c8         1 CLA     -0.325100
     32 C2A        77.5180   57.6500   36.3395 a1         1 CLA      0.098600
     33 C2B        78.3322   61.5715   41.1985 cb         1 CLA      0.088500
     34 C2C        73.0095   59.5434   43.3830 cb         1 CLA      0.053700
     35 C2D        71.7528   56.4989   38.1587 cb         1 CLA      0.058900
     36 O2A        79.6139   55.7040   34.8566 o1         1 CLA     -0.437200
     37 O2D        75.4561   54.2493   37.2520 o1         1 CLA     -0.357600
     38 C3         80.7811   53.1093   36.6969 c5         1 CLA      0.031200
     39 C3A        78.5481   58.5810   37.0953 a1         1 CLA      0.166800
     40 C3B        77.3853   61.7144   42.2848 cb         1 CLA      0.035000
     41 C3C        71.9549   58.9235   42.6723 cb         1 CLA     -0.089900
     42 C3D        72.8300   56.2828   37.2598 cb         1 CLA     -0.035900
     43 C4         81.5988   51.8621   36.5224 a3         1 CLA     -0.053300
     44 C4A        77.6712   59.2456   38.1573 ac         1 CLA      0.001800
     45 C4B        76.2580   60.9886   41.7792 cn         1 CLA     -0.020900
     46 C4C        72.4603   58.6651   41.3573 cr         1 CLA     -0.044400
     47 C4D        73.9239   57.1186   37.6497 c6         1 CLA     -0.046000
     48 C5         81.0952   53.9804   38.0298 a2         1 CLA     -0.070400
     49 C6         82.1302   55.0168   37.7908 a2         1 CLA      0.043900
     50 C7         82.3523   55.8705   39.0625 a2         1 CLA     -0.150000
     51 C8         83.2265   57.1660   39.0395 a1         1 CLA      0.064200
     52 C9         84.5667   56.7476   38.3366 a3         1 CLA     -0.259300
     53 C10        83.5402   57.6712   40.5334 a2         1 CLA     -0.071900
     54 C11        82.4857   58.4005   41.2660 a2         1 CLA      0.014500
     55 C12        82.8981   59.0003   42.6174 a2         1 CLA     -0.112100
     56 C13        83.4902   58.0758   43.7596 a1         1 CLA      0.089200
     57 C14        82.5736   56.8934   44.1543 a3         1 CLA     -0.239100
     58 C15        83.9844   58.9497   44.9359 a2         1 CLA     -0.102200
     59 C16        82.9741   59.2416   45.9970 a2         1 CLA      0.023900
     60 C17        83.5736   60.0820   47.0808 a2         1 CLA     -0.105700
     61 C18        82.6431   60.8025   48.0088 a1         1 CLA      0.206800
     62 C19        81.4772   59.8216   48.5065 a3         1 CLA     -0.280100
     63 C20        83.4986   61.3482   49.1242 a3         1 CLA     -0.280100
     64 NC         73.7031   59.2597   41.2194 nx         1 CLA     -0.309200
     65 MG         74.9431   59.1787   39.6521 mg         1 CLA      0.895000
     66 HMD3       69.8140   55.9981   39.1222 dc         1 CLA      0.064300
     67 HMD2       69.6747   56.4382   37.5226 dc         1 CLA      0.064300
     68 HMD1       70.3777   54.7740   37.9146 dc         1 CLA      0.064300
     69 HMC3       74.0720   59.9827   45.1626 dc         1 CLA      0.052100
     70 HMC2       72.6193   60.9422   44.9926 dc         1 CLA      0.052100
     71 HMC1       72.4825   59.2097   45.3848 dc         1 CLA      0.052100
     72 HMB3       80.0148   62.1979   39.8674 dc         1 CLA      0.063600
     73 HMB2       79.8309   63.1377   41.3869 dc         1 CLA      0.063600
     74 HMB1       80.3175   61.3011   41.4977 dc         1 CLA      0.063600
     75 HMA3       79.4122   56.7962   38.0774 dc         1 CLA      0.058300
     76 HMA2       80.2657   57.3871   36.7000 dc         1 CLA      0.058300
     77 HMA1       80.3476   58.3492   38.1446 dc         1 CLA      0.058300
     78 HED3       75.5887   52.1311   36.8695 dc         1 CLA      0.079300
     79 HED2       77.0863   52.7807   37.4563 dc         1 CLA      0.079300
     80 HED1       75.8632   52.6149   38.5489 dc         1 CLA      0.079300
     81 HBC3       70.5772   56.3468   42.6443 dc         1 CLA      0.016300
     82 HBC2       71.3734   56.6827   44.2706 dc         1 CLA      0.016300
     83 HBC1       69.5674   56.8159   44.0021 dc         1 CLA      0.016300
     84 HBB2       78.6394   62.9744   45.4169 da         1 CLA      0.183000
     85 HBB1       79.6155   62.3260   43.8826 da         1 CLA      0.183000
     86 HBA2       78.5348   58.2014   33.0907 dc         1 CLA      0.029400
     87 HBA1       79.5866   58.2813   34.4630 dc         1 CLA      0.029400
     88 HAC2       70.3964   58.9568   44.1335 dc         1 CLA      0.029300
     89 HAC1       69.8709   58.6114   42.4789 dc         1 CLA      0.029300
     90 HAA2       76.6911   57.4853   34.3221 dc         1 CLA      0.028700
     91 HAA1       77.1632   59.1437   34.8654 dc         1 CLA      0.028700
     92 H203       82.9836   62.0546   49.7259 dc         1 CLA      0.065600
     93 H202       83.8373   60.4417   49.6145 dc         1 CLA      0.065600
     94 H201       84.3836   61.7922   48.6929 dc         1 CLA      0.065600
     95 H193       81.8084   58.8398   48.8765 dc         1 CLA      0.065600
     96 H192       81.0515   60.1985   49.3898 dc         1 CLA      0.065600
     97 H191       80.6661   59.7688   47.7922 dc         1 CLA      0.065600
     98 H172       84.0756   59.3329   47.6740 dc         1 CLA      0.027600
     99 H171       84.2747   60.8099   46.6100 dc         1 CLA      0.027600
    100 H162       82.0612   59.6926   45.5642 dc         1 CLA      0.002900
    101 H161       82.7108   58.3607   46.5599 dc         1 CLA      0.002900
    102 H152       84.8739   58.4408   45.4401 dc         1 CLA      0.029100
    103 H151       84.4739   59.7642   44.4697 dc         1 CLA      0.029100
    104 H143       81.7447   57.2809   44.7033 dc         1 CLA      0.063600
    105 H142       82.2860   56.3683   43.2209 dc         1 CLA      0.063600
    106 H141       83.1080   56.2478   44.9394 dc         1 CLA      0.063600
    107 H122       83.5300   59.7910   42.3500 dc         1 CLA      0.032500
    108 H121       82.0053   59.5024   43.1264 dc         1 CLA      0.032500
    109 H112       82.0213   59.1812   40.6080 dc         1 CLA      0.006600
    110 H111       81.6584   57.6447   41.3132 dc         1 CLA      0.006600
    111 H102       83.6878   56.7694   41.1790 dc         1 CLA      0.024100
    112 H101       84.3578   58.2989   40.4573 dc         1 CLA      0.024100
    113 HHD        70.7369   57.4506   40.6818 da         1 CLA      0.174300
    114 HHC        75.1740   61.1773   43.5280 da         1 CLA      0.136800
    115 HHB        79.2645   60.3387   38.9224 da         1 CLA      0.138300
    116 HBD        74.7579   56.3708   34.8439 dc         1 CLA      0.107700
    117 HAB        76.5383   62.5724   44.2265 da         1 CLA      0.155200
    118 H93        85.0811   55.9587   38.8446 dc         1 CLA      0.069500
    119 H92        84.4977   56.6041   37.2673 dc         1 CLA      0.069500
    120 H91        85.1162   57.5854   38.4403 dc         1 CLA      0.069500
    121 H8         82.8583   57.9338   38.4318 dc         1 CLA      0.029300
    122 H72        81.3637   56.2587   39.3900 dc         1 CLA      0.044400
    123 H71        82.7099   55.2509   39.9208 dc         1 CLA      0.044400
    124 H62        83.0012   54.5038   37.4967 dc         1 CLA      0.015600
    125 H61        81.7732   55.6890   36.9452 dc         1 CLA      0.015600
    126 H52        80.1157   54.4606   38.2233 dc         1 CLA      0.033200
    127 H51        81.4576   53.3329   38.8481 dc         1 CLA      0.033200
    128 H43        81.6056   51.6848   35.4522 dc         1 CLA      0.037000
    129 H42        82.6650   51.8714   36.8807 dc         1 CLA      0.037000
    130 H41        81.1848   51.0474   37.0394 dc         1 CLA      0.037000
    131 H3A        78.8773   59.5197   36.5873 dc         1 CLA      0.041100
    132 H2A        77.8345   56.6096   36.4001 dc         1 CLA      0.083100
    133 H2         78.7587   53.2104   36.1725 da         1 CLA      0.180900
    134 H18        82.0728   61.6186   47.5106 dc         1 CLA     -0.003900
    135 H13        84.3025   57.5493   43.3720 dc         1 CLA      0.019700
    136 H12        78.9806   53.8335   34.1107 dc         1 CLA      0.120400
    137 H11        80.7531   54.0263   34.2255 dc         1 CLA      0.120400
    138 C1         67.2602   62.4406   50.8537 Z1         2 LUT      0.509236
    139 C2         65.8897   62.0685   51.3793 Z2         2 LUT     -0.434695
    140 C3         65.0496   63.3076   51.7771 Z3         2 LUT      0.437453
    141 O3         65.2585   63.6071   53.1770 S1         2 LUT     -0.547129
    142 C4         65.3684   64.5428   50.9402 Z4         2 LUT     -0.468603
    143 C5         66.1360   64.3152   49.6931 Z5         2 LUT      0.279246
    144 C6         67.1206   63.3329   49.6239 Z6         2 LUT     -0.305473
    145 C7         67.5627   62.7277   48.3036 Z7         2 LUT      0.069402
    146 C8         68.4114   63.1933   47.3217 Z8         2 LUT     -0.191631
    147 C9         68.8066   62.5836   46.1006 Z9         2 LUT      0.196698
    148 C10        69.9261   63.1529   45.4384 Y1         2 LUT     -0.208611
    149 C11        70.4974   62.8339   44.1107 Y2         2 LUT      0.030784
    150 C12        71.5295   63.5243   43.5664 Y3         2 LUT     -0.220316
    151 C13        72.3640   63.3623   42.3159 Y4         2 LUT      0.215937
    152 C14        73.4643   64.1762   42.1139 Y5         2 LUT     -0.185793
    153 C15        74.5545   64.0872   41.2879 Y6         2 LUT     -0.057835
    154 C16        67.9671   61.0938   50.4567 Y7         2 LUT     -0.405615
    155 C17        68.0617   63.0527   52.0127 Y7         2 LUT     -0.405615
    156 C18        65.3740   64.9920   48.5694 Y9         2 LUT     -0.369639
    157 C19        68.2832   61.2557   45.6956 W1         2 LUT     -0.333362
    158 C20        71.8689   62.4828   41.1853 W2         2 LUT     -0.323439
    159 C21        86.3869   64.7983   35.5850 Z1         2 LUT      0.406104
    160 C22        87.1741   64.1678   34.4263 Z2         2 LUT     -0.404965
    161 C23        87.0837   64.8956   33.1235 Z3         2 LUT      0.391255
    162 O23        87.3130   63.8757   32.2299 S1         2 LUT     -0.528210
    163 C24        85.8399   65.6640   32.9649 W6         2 LUT     -0.258361
    164 C25        84.8579   65.7784   33.8387 Z5         2 LUT      0.133546
    165 C26        84.8723   65.1021   35.1794 W8         2 LUT     -0.147008
    166 C27        84.0813   65.7360   36.2286 Z7         2 LUT      0.023843
    167 C28        82.9353   65.3663   36.8042 Z8         2 LUT     -0.216987
    168 C29        82.2589   65.9372   37.9706 Z9         2 LUT      0.206524
    169 C30        81.0440   65.3370   38.2075 Y1         2 LUT     -0.215556
    170 C31        80.2135   65.7346   39.3043 Y2         2 LUT      0.025142
    171 C32        79.0482   65.1052   39.6120 Y3         2 LUT     -0.212209
    172 C33        78.0686   65.1998   40.6958 Y4         2 LUT      0.240937
    173 C34        76.8099   64.6358   40.5452 Y5         2 LUT     -0.218862
    174 C35        75.7631   64.7929   41.4494 Y6         2 LUT     -0.023547
    175 C36        87.3320   65.8562   36.1735 Y7         2 LUT     -0.393485
    176 C37        86.3630   63.8110   36.8084 Y7         2 LUT     -0.393485
    177 C38        83.5667   66.4459   33.3815 Y9         2 LUT     -0.387526
    178 C39        82.9516   67.0342   38.7883 W1         2 LUT     -0.322618
    179 C40        78.6344   65.8296   41.9269 W2         2 LUT     -0.358472
    180 H403       79.7497   65.7702   42.0146 R7         2 LUT      0.097720
    181 H402       78.2971   66.9084   41.8943 R7         2 LUT      0.097720
    182 H401       78.2439   65.5166   42.8943 R7         2 LUT      0.097720
    183 H393       83.9621   66.8950   39.1191 R4         2 LUT      0.082505
    184 H392       83.0580   67.9565   38.2644 R4         2 LUT      0.082505
    185 H391       82.4963   67.2626   39.8422 R4         2 LUT      0.082505
    186 H383       83.5886   66.8964   32.3913 R1         2 LUT      0.104030
    187 H382       82.7270   65.7314   33.1634 R1         2 LUT      0.104030
    188 H381       83.1749   67.2817   34.0329 R1         2 LUT      0.104030
    189 H373       85.7776   64.2260   37.6432 T4         2 LUT      0.089537
    190 H372       85.9695   62.8307   36.4961 T4         2 LUT      0.089537
    191 H371       87.3358   63.5460   37.2436 T4         2 LUT      0.089537
    192 H363       87.5145   66.6229   35.4935 T4         2 LUT      0.089537
    193 H362       86.9647   66.3595   37.1030 T4         2 LUT      0.089537
    194 H361       88.3033   65.4449   36.4755 T4         2 LUT      0.089537
    195 H222       88.1656   64.0419   34.8488 U2         2 LUT      0.127376
    196 H221       86.8509   63.1580   34.2196 U2         2 LUT      0.127376
    197 H203       71.4645   61.6039   41.6811 R7         2 LUT      0.087068
    198 H202       71.0197   62.9664   40.6882 R7         2 LUT      0.087068
    199 H201       72.5848   62.2707   40.4444 R7         2 LUT      0.087068
    200 H193       67.5119   61.4252   44.9394 R4         2 LUT      0.089716
    201 H192       69.0009   60.6614   45.1334 R4         2 LUT      0.089716
    202 H191       67.8977   60.5786   46.4661 R4         2 LUT      0.089716
    203 H183       65.4684   66.0910   48.6350 R1         2 LUT      0.094572
    204 H182       65.6846   64.6541   47.6384 R1         2 LUT      0.094572
    205 H181       64.3144   64.7035   48.5896 R1         2 LUT      0.094572
    206 H173       69.1209   63.3063   51.7727 T4         2 LUT      0.093752
    207 H172       67.5629   63.9711   52.4766 T4         2 LUT      0.093752
    208 H171       68.1514   62.2898   52.7849 T4         2 LUT      0.093752
    209 H163       67.4999   60.4939   49.6867 T4         2 LUT      0.093752
    210 H162       69.0021   61.2867   50.0702 T4         2 LUT      0.093752
    211 H161       68.1635   60.5603   51.4325 T4         2 LUT      0.093752
    212 HO3        65.0370   62.8658   53.8025 Q1         2 LUT      0.300121
    213 H8         69.0040   64.0710   47.5794 U7         2 LUT      0.080784
    214 H7         67.0059   61.8320   48.1014 U6         2 LUT      0.042190
    215 H42        64.3857   65.0491   50.7388 U5         2 LUT      0.145166
    216 H41        65.8353   65.3130   51.5243 U5         2 LUT      0.145166
    217 H35        75.8170   65.4197   42.3068 T3         2 LUT      0.077919
    218 H34        76.6232   64.1459   39.6262 T2         2 LUT      0.073626
    219 H32        78.7831   64.3493   38.8761 T1         2 LUT      0.092510
    220 H31        80.5267   66.5074   40.0092 U9         2 LUT      0.070048
    221 H30        80.7404   64.4457   37.6483 U8         2 LUT      0.085442
    222 H3         64.0032   62.9638   51.6871 U3         2 LUT     -0.031596
    223 H28        82.4406   64.4607   36.4141 U7         2 LUT      0.084728
    224 H27        84.5379   66.6126   36.6722 U6         2 LUT      0.087291
    225 H26        84.4623   64.1784   34.8629 Q6         2 LUT      0.075325
    226 H24        85.8367   66.0985   31.9838 Q5         2 LUT      0.094482
    227 H23        87.9163   65.6405   33.1605 U3         2 LUT     -0.024869
    228 H22        65.3041   61.6045   50.5879 U2         2 LUT      0.127376
    229 H21        65.9398   61.2743   52.1615 U2         2 LUT      0.127376
    230 H15        74.5310   63.4883   40.3732 T3         2 LUT      0.093200
    231 H14        73.6575   64.9449   42.8335 T2         2 LUT      0.068865
    232 H12        71.8959   64.2498   44.2509 T1         2 LUT      0.095507
    233 H11        70.0185   62.0219   43.6352 U9         2 LUT      0.068930
    234 H10        70.2732   64.0929   45.8327 U8         2 LUT      0.083911
    235 H1         87.7141   64.3024   31.4895 Q1         2 LUT      0.297311
@<TRIPOS>BOND
    1     6     1 1
    2     7     2 1
    3     8     3 1
    4     9     4 1
    5    11     4 1
    6    12     6 1
    7    13     9 1
    8    16     9 1
    9    25     5 1
   10    25    16 1
   11    26    10 1
   12    26    17 1
   13    27    18 1
   14    28    14 1
   15    28    19 1
   16    29    12 1
   17    30    13 1
   18    31    24 1
   19    32     1 1
   20    32    25 1
   21    33    21 1
   22    33    26 1
   23    34    22 1
   24    34    27 1
   25    35    23 1
   26    35    28 1
   27    36    12 1
   28    36    24 1
   29    37    13 1
   30    37    15 1
   31    38    31 1
   32    39    20 1
   33    39    32 1
   34    40     2 1
   35    40    33 1
   36    41     3 1
   37    41    34 1
   38    42     4 1
   39    42    35 1
   40    43    38 1
   41    44     5 1
   42    44    17 1
   43    44    39 1
   44    45    10 1
   45    45    18 1
   46    45    40 1
   47    46    19 1
   48    46    41 1
   49    47    14 1
   50    47    16 1
   51    47    42 1
   52    48    38 1
   53    49    48 1
   54    50    49 1
   55    51    50 1
   56    52    51 1
   57    53    51 1
   58    54    53 1
   59    55    54 1
   60    56    55 1
   61    57    56 1
   62    58    56 1
   63    59    58 1
   64    60    59 1
   65    61    60 1
   66    62    61 1
   67    63    61 1
   68    64    27 1
   69    64    46 1
   70    65     5 1
   71    65    10 1
   72    65    64 1
   73    65    14 1
   74    66    23 1
   75    67    23 1
   76    68    23 1
   77    69    22 1
   78    70    22 1
   79    71    22 1
   80    72    21 1
   81    73    21 1
   82    74    21 1
   83    75    20 1
   84    76    20 1
   85    77    20 1
   86    78    15 1
   87    79    15 1
   88    80    15 1
   89    81     8 1
   90    82     8 1
   91    83     8 1
   92    84     7 1
   93    85     7 1
   94    86     6 1
   95    87     6 1
   96    88     3 1
   97    89     3 1
   98    90     1 1
   99    91     1 1
  100    92    63 1
  101    93    63 1
  102    94    63 1
  103    95    62 1
  104    96    62 1
  105    97    62 1
  106    98    60 1
  107    99    60 1
  108   100    59 1
  109   101    59 1
  110   102    58 1
  111   103    58 1
  112   104    57 1
  113   105    57 1
  114   106    57 1
  115   107    55 1
  116   108    55 1
  117   109    54 1
  118   110    54 1
  119   111    53 1
  120   112    53 1
  121   113    19 1
  122   114    18 1
  123   115    17 1
  124   116     9 1
  125   117     2 1
  126   118    52 1
  127   119    52 1
  128   120    52 1
  129   121    51 1
  130   122    50 1
  131   123    50 1
  132   124    49 1
  133   125    49 1
  134   126    48 1
  135   127    48 1
  136   128    43 1
  137   129    43 1
  138   130    43 1
  139   131    39 1
  140   132    32 1
  141   133    31 1
  142   134    61 1
  143   135    56 1
  144   136    24 1
  145   137    24 1
  146   139   138 1
  147   140   139 1
  148   141   140 1
  149   142   140 1
  150   143   142 1
  151   144   138 1
  152   144   143 1
  153   145   144 1
  154   146   145 1
  155   147   146 1
  156   148   147 1
  157   149   148 1
  158   150   149 1
  159   151   150 1
  160   152   151 1
  161   153   152 1
  162   154   138 1
  163   155   138 1
  164   156   143 1
  165   157   147 1
  166   158   151 1
  167   160   159 1
  168   161   160 1
  169   162   161 1
  170   163   161 1
  171   164   163 1
  172   165   159 1
  173   165   164 1
  174   166   165 1
  175   167   166 1
  176   168   167 1
  177   169   168 1
  178   170   169 1
  179   171   170 1
  180   172   171 1
  181   173   172 1
  182   174   153 1
  183   174   173 1
  184   175   159 1
  185   176   159 1
  186   177   164 1
  187   178   168 1
  188   179   172 1
  189   180   179 1
  190   181   179 1
  191   182   179 1
  192   183   178 1
  193   184   178 1
  194   185   178 1
  195   186   177 1
  196   187   177 1
  197   188   177 1
  198   189   176 1
  199   190   176 1
  200   191   176 1
  201   192   175 1
  202   193   175 1
  203   194   175 1
  204   195   160 1
  205   196   160 1
  206   197   158 1
  207   198   158 1
  208   199   158 1
  209   200   157 1
  210   201   157 1
  211   202   157 1
  212   203   156 1
  213   204   156 1
  214   205   156 1
  215   206   155 1
  216   207   155 1
  217   208   155 1
  218   209   154 1
  219   210   154 1
  220   211   154 1
  221   212   141 1
  222   213   146 1
  223   214   145 1
  224   215   142 1
  225   216   142 1
  226   217   174 1
  227   218   173 1
  228   219   171 1
  229   220   170 1
  230   221   169 1
  231   222   140 1
  232   223   167 1
  233   224   166 1
  234   225   165 1
  235   226   163 1
  236   227   161 1
  237   228   139 1
  238   229   139 1
  239   230   153 1
  240   231   152 1
  241   232   150 1
  242   233   149 1
  243   234   148 1
  244   235   162 1
  245   65    153 1
  246   65    174 1
@<TRIPOS>SUBSTRUCTURE
      1 CLA               1 ****               0 ****  **** 
      2 LUT             138 ****               0 ****  **** 
