@<TRIPOS>MOLECULE
Cpptraj generated mol2 file.
  235   246     2     0     0
SMALL
USER_CHARGES


@<TRIPOS>ATOM
      1 CAA        80.1075   58.0648   34.5703 a2         1 CLA     -0.055900
      2 CAB        80.8140   62.5398   43.2742 c8         1 CLA     -0.148500
      3 CAC        73.5243   58.9273   43.2390 a2         1 CLA     -0.012600
      4 CAD        76.1040   55.5696   36.4019 ck         1 CLA      0.398800
      5 NA         79.2564   58.9218   37.8822 ns         1 CLA     -0.225500
      6 CBA        81.2368   57.8438   33.5836 a2         1 CLA     -0.135000
      7 CBB        82.0525   62.9043   43.6531 c0         1 CLA     -0.395200
      8 CBC        73.5966   57.4104   43.4554 a3         1 CLA     -0.037700
      9 CBD        77.5494   56.0545   35.9355 a1         1 CLA     -0.053900
     10 NB         79.3063   60.7087   40.4135 nm         1 CLA     -0.295700
     11 OBD        75.3989   54.7444   35.8535 o2         1 CLA     -0.494600
     12 CGA        81.5931   56.4713   33.2862 c4         1 CLA      0.827000
     13 CGD        78.6444   54.9212   36.0140 c4         1 CLA      0.655300
     14 ND         76.5767   58.0717   38.8121 nm         1 CLA     -0.291600
     15 CED        79.8970   53.4467   37.5273 a3         1 CLA      0.005400
     16 CHA        77.8566   57.2410   36.8909 cs         1 CLA     -0.123800
     17 CHB        81.1195   60.3294   38.7747 aa         1 CLA     -0.291900
     18 CHC        78.1450   60.9703   42.6012 aa         1 CLA     -0.090400
     19 CHD        74.7071   58.2292   40.4045 aa         1 CLA     -0.052000
     20 CMA        82.6207   57.8999   37.1862 a3         1 CLA     -0.230700
     21 CMB        82.7595   62.2762   40.6356 a3         1 CLA     -0.180800
     22 CMC        75.7161   60.8349   44.7700 a3         1 CLA     -0.134000
     23 CMD        73.3201   56.1987   38.2486 a3         1 CLA     -0.141100
     24 C1         82.7694   54.5414   34.1496 a2         1 CLA      0.023000
     25 C1A        79.0580   57.9610   36.9575 ac         1 CLA     -0.015100
     26 C1B        80.6033   60.9697   39.9161 cr         1 CLA      0.054700
     27 C1C        76.9029   60.3528   42.3715 cn         1 CLA     -0.005600
     28 C1D        75.2963   57.7180   39.2317 ap         1 CLA     -0.047300
     29 O1A        81.2975   55.8592   32.2459 o2         1 CLA     -0.610800
     30 O1D        79.3984   54.6182   35.1231 o2         1 CLA     -0.558200
     31 C2         83.3492   54.0893   35.4107 c8         1 CLA     -0.325100
     32 C2A        80.3332   57.8088   36.0452 a1         1 CLA      0.098600
     33 C2B        81.3135   61.7619   40.8327 cb         1 CLA      0.088500
     34 C2C        75.7636   60.2052   43.3856 cb         1 CLA      0.053700
     35 C2D        74.6806   56.8262   38.2659 cb         1 CLA      0.058900
     36 O2A        82.3953   55.9623   34.2739 o1         1 CLA     -0.437200
     37 O2D        78.7202   54.3194   37.2547 o1         1 CLA     -0.357600
     38 C3         84.0911   52.9513   35.5818 c5         1 CLA      0.031200
     39 C3A        81.4057   58.7174   36.7568 a1         1 CLA      0.166800
     40 C3B        80.5151   61.8576   41.9992 cb         1 CLA      0.035000
     41 C3C        74.8173   59.3684   42.6639 cb         1 CLA     -0.089900
     42 C3D        75.7504   56.4333   37.4467 cb         1 CLA     -0.035900
     43 C4         83.4496   51.6171   35.8070 a3         1 CLA     -0.053300
     44 C4A        80.5935   59.3868   37.8249 ac         1 CLA      0.001800
     45 C4B        79.2510   61.1451   41.6980 cn         1 CLA     -0.020900
     46 C4C        75.3537   59.0308   41.3657 cr         1 CLA     -0.044400
     47 C4D        76.8008   57.3064   37.7557 c6         1 CLA     -0.046000
     48 C5         85.5477   52.9587   35.7037 a2         1 CLA     -0.070400
     49 C6         86.0434   53.7790   36.8803 a2         1 CLA      0.043900
     50 C7         87.5754   53.7656   37.0038 a2         1 CLA     -0.150000
     51 C8         88.1075   54.9210   37.7965 a1         1 CLA      0.064200
     52 C9         89.6514   54.6612   37.9912 a3         1 CLA     -0.259300
     53 C10        87.4415   55.0773   39.2434 a2         1 CLA     -0.071900
     54 C11        88.0269   56.3650   39.8627 a2         1 CLA      0.014500
     55 C12        87.0306   56.9069   40.9314 a2         1 CLA     -0.112100
     56 C13        87.5326   58.1847   41.7384 a1         1 CLA      0.089200
     57 C14        88.8510   57.8018   42.3926 a3         1 CLA     -0.239100
     58 C15        86.4397   58.5615   42.7949 a2         1 CLA     -0.102200
     59 C16        86.4633   60.0886   43.2357 a2         1 CLA      0.023900
     60 C17        85.1576   60.5114   44.0007 a2         1 CLA     -0.105700
     61 C18        84.7449   59.7302   45.2095 a1         1 CLA      0.206800
     62 C19        85.8719   59.8673   46.2401 a3         1 CLA     -0.280100
     63 C20        83.3264   59.9794   45.8238 a3         1 CLA     -0.280100
     64 NC         76.6173   59.5689   41.2754 nx         1 CLA     -0.309200
     65 MG         77.9008   59.4648   39.5547 mg         1 CLA      0.895000
     66 HMD3       72.5022   56.8356   37.8050 dc         1 CLA      0.064300
     67 HMD2       73.4747   55.3348   37.5500 dc         1 CLA      0.064300
     68 HMD1       72.9977   55.7932   39.1911 dc         1 CLA      0.064300
     69 HMC3       76.1275   61.8711   44.6139 dc         1 CLA      0.052100
     70 HMC2       74.7340   60.8938   45.2073 dc         1 CLA      0.052100
     71 HMC1       76.4186   60.3453   45.4227 dc         1 CLA      0.052100
     72 HMB3       83.3248   61.4499   41.0930 dc         1 CLA      0.063600
     73 HMB2       82.9993   62.3941   39.5957 dc         1 CLA      0.063600
     74 HMB1       82.8414   63.2544   41.0293 dc         1 CLA      0.063600
     75 HMA3       83.3950   57.7148   36.4883 dc         1 CLA      0.058300
     76 HMA2       83.1001   58.5126   37.8518 dc         1 CLA      0.058300
     77 HMA1       82.3450   56.9765   37.5707 dc         1 CLA      0.058300
     78 HED3       80.0281   52.7742   36.6821 dc         1 CLA      0.079300
     79 HED2       80.8386   54.0340   37.5237 dc         1 CLA      0.079300
     80 HED1       79.7378   52.8239   38.4100 dc         1 CLA      0.079300
     81 HBC3       73.7659   56.9554   42.4831 dc         1 CLA      0.016300
     82 HBC2       74.3092   57.1676   44.3200 dc         1 CLA      0.016300
     83 HBC1       72.5609   57.0917   43.8594 dc         1 CLA      0.016300
     84 HBB2       82.1512   63.3718   44.6226 da         1 CLA      0.183000
     85 HBB1       82.9144   62.7705   43.0311 da         1 CLA      0.183000
     86 HBA2       80.9273   58.3016   32.6202 dc         1 CLA      0.029400
     87 HBA1       82.0511   58.3337   33.9858 dc         1 CLA      0.029400
     88 HAC2       73.2617   59.4013   44.1767 dc         1 CLA      0.029300
     89 HAC1       72.7278   58.9535   42.4639 dc         1 CLA      0.029300
     90 HAA2       79.2130   57.4405   34.2401 dc         1 CLA      0.028700
     91 HAA1       79.7172   59.0976   34.5225 dc         1 CLA      0.028700
     92 H203       82.6209   59.5630   45.1217 dc         1 CLA      0.065600
     93 H202       83.2613   59.4296   46.7841 dc         1 CLA      0.065600
     94 H201       83.1637   61.0757   45.9735 dc         1 CLA      0.065600
     95 H193       86.7897   59.3177   45.8268 dc         1 CLA      0.065600
     96 H192       85.9962   60.8871   46.4030 dc         1 CLA      0.065600
     97 H191       85.7340   59.2683   47.1000 dc         1 CLA      0.065600
     98 H172       85.3546   61.6102   44.2179 dc         1 CLA      0.027600
     99 H171       84.3648   60.4128   43.1803 dc         1 CLA      0.027600
    100 H162       87.3030   60.2947   43.9566 dc         1 CLA      0.002900
    101 H161       86.5935   60.7341   42.3423 dc         1 CLA      0.002900
    102 H152       85.6074   58.5428   42.0765 dc         1 CLA      0.029100
    103 H151       86.3582   57.6935   43.4740 dc         1 CLA      0.029100
    104 H143       88.8831   56.8790   42.9870 dc         1 CLA      0.063600
    105 H142       89.5661   57.6117   41.5945 dc         1 CLA      0.063600
    106 H141       89.2539   58.6169   42.9962 dc         1 CLA      0.063600
    107 H122       86.0868   56.9320   40.4379 dc         1 CLA      0.032500
    108 H121       87.0789   56.0794   41.6478 dc         1 CLA      0.032500
    109 H112       88.9513   55.9884   40.3082 dc         1 CLA      0.006600
    110 H111       88.2351   57.0833   39.1424 dc         1 CLA      0.006600
    111 H102       86.3821   55.2276   39.0729 dc         1 CLA      0.024100
    112 H101       87.5169   54.2228   39.8975 dc         1 CLA      0.024100
    113 HHD        73.6732   57.8294   40.4659 da         1 CLA      0.174300
    114 HHC        78.3545   61.2699   43.6447 da         1 CLA      0.136800
    115 HHB        82.2529   60.4688   38.7365 da         1 CLA      0.138300
    116 HBD        77.4687   56.3727   34.8812 dc         1 CLA      0.107700
    117 HAB        79.9709   62.7815   43.9558 da         1 CLA      0.155200
    118 H93        89.8555   53.6908   38.4390 dc         1 CLA      0.069500
    119 H92        90.1825   54.6945   37.0874 dc         1 CLA      0.069500
    120 H91        90.0354   55.5275   38.4797 dc         1 CLA      0.069500
    121 H8         87.9906   55.8266   37.2806 dc         1 CLA      0.029300
    122 H72        87.7867   52.8191   37.4645 dc         1 CLA      0.044400
    123 H71        88.0706   53.9159   36.0470 dc         1 CLA      0.044400
    124 H62        85.8416   54.8308   36.6176 dc         1 CLA      0.015600
    125 H61        85.4583   53.4537   37.7769 dc         1 CLA      0.015600
    126 H52        85.9239   52.0040   35.8242 dc         1 CLA      0.033200
    127 H51        85.9920   53.4377   34.7809 dc         1 CLA      0.033200
    128 H43        84.1925   50.8360   35.6018 dc         1 CLA      0.037000
    129 H42        83.2916   51.5887   36.8858 dc         1 CLA      0.037000
    130 H41        82.5451   51.4560   35.3005 dc         1 CLA      0.037000
    131 H3A        81.7735   59.4780   36.0238 dc         1 CLA      0.041100
    132 H2A        80.7131   56.7565   36.2326 dc         1 CLA      0.083100
    133 H2         83.0384   54.6582   36.3224 da         1 CLA      0.180900
    134 H18        84.7819   58.6804   44.9492 dc         1 CLA     -0.003900
    135 H13        87.5909   59.0720   41.1325 dc         1 CLA      0.019700
    136 H12        81.9457   53.9574   33.8660 dc         1 CLA      0.120400
    137 H11        83.4529   54.3261   33.3874 dc         1 CLA      0.120400
    138 C1         70.1512   62.3785   49.4487 Z1         2 LUT      0.509236
    139 C2         68.9529   62.0026   50.3520 Z2         2 LUT     -0.434695
    140 C3         68.2385   63.1980   50.9236 Z3         2 LUT      0.437453
    141 O3         68.7027   63.6903   52.2144 S1         2 LUT     -0.547129
    142 C4         68.1204   64.3256   49.9496 Z4         2 LUT     -0.468603
    143 C5         68.6682   64.1758   48.6509 Z5         2 LUT      0.279246
    144 C6         69.5747   63.2585   48.3500 Z6         2 LUT     -0.305473
    145 C7         69.9132   62.9021   46.9687 Z7         2 LUT      0.069402
    146 C8         71.1251   63.0307   46.3813 Z8         2 LUT     -0.191631
    147 C9         71.6592   62.8103   44.9692 Z9         2 LUT      0.196698
    148 C10        72.8233   63.4287   44.5338 Y1         2 LUT     -0.208611
    149 C11        73.5334   63.3055   43.2653 Y2         2 LUT      0.030784
    150 C12        74.7433   63.9308   43.0281 Y3         2 LUT     -0.220316
    151 C13        75.7067   63.7477   41.9325 Y4         2 LUT      0.215937
    152 C14        76.9059   64.4127   42.0034 Y5         2 LUT     -0.185793
    153 C15        78.1111   64.2571   41.1694 Y6         2 LUT     -0.057835
    154 C16        70.8221   61.0854   48.9297 Y7         2 LUT     -0.405615
    155 C17        71.1889   63.0456   50.4335 Y7         2 LUT     -0.405615
    156 C18        67.8281   64.9399   47.6741 Y9         2 LUT     -0.369639
    157 C19        70.8714   62.0155   43.9767 W1         2 LUT     -0.333362
    158 C20        75.3606   62.8925   40.7186 W2         2 LUT     -0.323439
    159 C21        89.3133   65.6779   34.9688 Z1         2 LUT      0.406104
    160 C22        90.2129   65.3256   33.7265 Z2         2 LUT     -0.404965
    161 C23        90.2117   66.3382   32.6597 Z3         2 LUT      0.391255
    162 O23        90.9620   65.9784   31.4333 S1         2 LUT     -0.528210
    163 C24        88.8015   67.0351   32.4279 W6         2 LUT     -0.258361
    164 C25        87.7482   66.9911   33.2877 Z5         2 LUT      0.133546
    165 C26        87.9069   66.0805   34.4730 W8         2 LUT     -0.147008
    166 C27        87.0472   66.5706   35.6457 Z7         2 LUT      0.023843
    167 C28        85.8000   66.1255   36.0699 Z8         2 LUT     -0.216987
    168 C29        85.3673   66.5480   37.4088 Z9         2 LUT      0.206524
    169 C30        84.2359   65.8755   37.8303 Y1         2 LUT     -0.215556
    170 C31        83.5488   66.0898   39.1037 Y2         2 LUT      0.025142
    171 C32        82.3780   65.4786   39.3189 Y3         2 LUT     -0.212209
    172 C33        81.5472   65.5707   40.4532 Y4         2 LUT      0.240937
    173 C34        80.3804   64.8148   40.4004 Y5         2 LUT     -0.218862
    174 C35        79.3239   64.9102   41.3698 Y6         2 LUT     -0.023547
    175 C36        89.9398   66.9437   35.6038 Y7         2 LUT     -0.393485
    176 C37        89.3094   64.5934   35.9725 Y7         2 LUT     -0.393485
    177 C38        86.4821   67.8289   33.2143 Y9         2 LUT     -0.387526
    178 C39        86.0627   67.5206   38.3076 W1         2 LUT     -0.322618
    179 C40        81.8436   66.6787   41.4060 W2         2 LUT     -0.358472
    180 H403       82.8039   66.4226   41.8416 R7         2 LUT      0.097720
    181 H402       82.0766   67.6022   40.7844 R7         2 LUT      0.097720
    182 H401       81.2035   66.9194   42.3000 R7         2 LUT      0.097720
    183 H393       86.9213   67.1491   38.8569 R4         2 LUT      0.082505
    184 H392       86.5362   68.3189   37.7333 R4         2 LUT      0.082505
    185 H391       85.3957   68.0942   38.9589 R4         2 LUT      0.082505
    186 H383       86.3503   68.5181   34.0096 R1         2 LUT      0.104030
    187 H382       86.3765   68.3555   32.2936 R1         2 LUT      0.104030
    188 H381       85.6612   67.0977   33.1777 R1         2 LUT      0.104030
    189 H373       90.2504   64.4359   36.4294 T4         2 LUT      0.089537
    190 H372       88.5607   64.8033   36.7986 T4         2 LUT      0.089537
    191 H371       88.9276   63.6847   35.4568 T4         2 LUT      0.089537
    192 H363       89.5040   67.1255   36.5983 T4         2 LUT      0.089537
    193 H362       91.0030   66.8030   35.7173 T4         2 LUT      0.089537
    194 H361       89.8502   67.7653   34.9170 T4         2 LUT      0.089537
    195 H222       91.2164   65.0885   34.0593 U2         2 LUT      0.127376
    196 H221       89.8018   64.4935   33.2824 U2         2 LUT      0.127376
    197 H203       76.0162   61.9787   40.6644 R7         2 LUT      0.087068
    198 H202       74.3044   62.6304   40.7638 R7         2 LUT      0.087068
    199 H201       75.5953   63.3898   39.7762 R7         2 LUT      0.087068
    200 H193       70.9990   62.3276   42.9365 R4         2 LUT      0.089716
    201 H192       71.0178   60.9226   43.9523 R4         2 LUT      0.089716
    202 H191       69.8269   62.2664   44.1036 R4         2 LUT      0.089716
    203 H183       68.3338   65.9736   47.5783 R1         2 LUT      0.094572
    204 H182       67.5909   64.3640   46.7054 R1         2 LUT      0.094572
    205 H181       66.8550   65.0303   48.1122 R1         2 LUT      0.094572
    206 H173       70.8723   64.0632   50.6523 T4         2 LUT      0.093752
    207 H172       71.3745   62.5709   51.4267 T4         2 LUT      0.093752
    208 H171       72.2085   63.1528   50.0677 T4         2 LUT      0.093752
    209 H163       71.6461   61.2392   48.2088 T4         2 LUT      0.093752
    210 H162       71.4289   60.5555   49.7277 T4         2 LUT      0.093752
    211 H161       70.1333   60.3359   48.3880 T4         2 LUT      0.093752
    212 HO3        68.5023   63.0820   52.9062 Q1         2 LUT      0.300121
    213 H8         71.8276   63.4452   47.1623 U7         2 LUT      0.080784
    214 H7         69.0376   62.7086   46.4034 U6         2 LUT      0.042190
    215 H42        67.0659   64.6261   49.9899 U5         2 LUT      0.145166
    216 H41        68.6545   65.1171   50.4889 U5         2 LUT      0.145166
    217 H35        79.3547   65.5198   42.2326 T3         2 LUT      0.077919
    218 H34        80.1654   64.1039   39.6490 T2         2 LUT      0.073626
    219 H32        82.1481   64.7215   38.5599 T1         2 LUT      0.092510
    220 H31        83.9615   66.7395   39.8997 U9         2 LUT      0.070048
    221 H30        83.8027   65.1428   37.1491 U8         2 LUT      0.085442
    222 H3         67.2005   62.7668   50.9160 U3         2 LUT     -0.031596
    223 H28        85.0692   65.5314   35.5433 U7         2 LUT      0.084728
    224 H27        87.5665   67.3167   36.2236 U6         2 LUT      0.087291
    225 H26        87.4373   65.1329   34.1248 Q6         2 LUT      0.075325
    226 H24        88.7722   67.6435   31.6381 Q5         2 LUT      0.094482
    227 H23        90.8785   67.1796   33.0777 U3         2 LUT     -0.024869
    228 H22        68.2260   61.5547   49.6299 U2         2 LUT      0.127376
    229 H21        69.4251   61.3613   51.1947 U2         2 LUT      0.127376
    230 H15        78.1333   63.5447   40.3816 T3         2 LUT      0.093200
    231 H14        77.1197   65.0224   42.8680 T2         2 LUT      0.068865
    232 H12        75.1696   64.5189   43.8239 T1         2 LUT      0.095507
    233 H11        73.2967   62.5540   42.5062 U9         2 LUT      0.068930
    234 H10        73.4236   63.9783   45.2718 U8         2 LUT      0.083911
    235 H1         90.4734   65.3260   30.8827 Q1         2 LUT      0.297311
@<TRIPOS>BOND
    1     6     1 1
    2     7     2 1
    3     8     3 1
    4     9     4 1
    5    11     4 1
    6    12     6 1
    7    13     9 1
    8    16     9 1
    9    25     5 1
   10    25    16 1
   11    26    10 1
   12    26    17 1
   13    27    18 1
   14    28    14 1
   15    28    19 1
   16    29    12 1
   17    30    13 1
   18    31    24 1
   19    32     1 1
   20    32    25 1
   21    33    21 1
   22    33    26 1
   23    34    22 1
   24    34    27 1
   25    35    23 1
   26    35    28 1
   27    36    12 1
   28    36    24 1
   29    37    13 1
   30    37    15 1
   31    38    31 1
   32    39    20 1
   33    39    32 1
   34    40     2 1
   35    40    33 1
   36    41     3 1
   37    41    34 1
   38    42     4 1
   39    42    35 1
   40    43    38 1
   41    44     5 1
   42    44    17 1
   43    44    39 1
   44    45    10 1
   45    45    18 1
   46    45    40 1
   47    46    19 1
   48    46    41 1
   49    47    14 1
   50    47    16 1
   51    47    42 1
   52    48    38 1
   53    49    48 1
   54    50    49 1
   55    51    50 1
   56    52    51 1
   57    53    51 1
   58    54    53 1
   59    55    54 1
   60    56    55 1
   61    57    56 1
   62    58    56 1
   63    59    58 1
   64    60    59 1
   65    61    60 1
   66    62    61 1
   67    63    61 1
   68    64    27 1
   69    64    46 1
   70    65     5 1
   71    65    10 1
   72    65    64 1
   73    65    14 1
   74    66    23 1
   75    67    23 1
   76    68    23 1
   77    69    22 1
   78    70    22 1
   79    71    22 1
   80    72    21 1
   81    73    21 1
   82    74    21 1
   83    75    20 1
   84    76    20 1
   85    77    20 1
   86    78    15 1
   87    79    15 1
   88    80    15 1
   89    81     8 1
   90    82     8 1
   91    83     8 1
   92    84     7 1
   93    85     7 1
   94    86     6 1
   95    87     6 1
   96    88     3 1
   97    89     3 1
   98    90     1 1
   99    91     1 1
  100    92    63 1
  101    93    63 1
  102    94    63 1
  103    95    62 1
  104    96    62 1
  105    97    62 1
  106    98    60 1
  107    99    60 1
  108   100    59 1
  109   101    59 1
  110   102    58 1
  111   103    58 1
  112   104    57 1
  113   105    57 1
  114   106    57 1
  115   107    55 1
  116   108    55 1
  117   109    54 1
  118   110    54 1
  119   111    53 1
  120   112    53 1
  121   113    19 1
  122   114    18 1
  123   115    17 1
  124   116     9 1
  125   117     2 1
  126   118    52 1
  127   119    52 1
  128   120    52 1
  129   121    51 1
  130   122    50 1
  131   123    50 1
  132   124    49 1
  133   125    49 1
  134   126    48 1
  135   127    48 1
  136   128    43 1
  137   129    43 1
  138   130    43 1
  139   131    39 1
  140   132    32 1
  141   133    31 1
  142   134    61 1
  143   135    56 1
  144   136    24 1
  145   137    24 1
  146   139   138 1
  147   140   139 1
  148   141   140 1
  149   142   140 1
  150   143   142 1
  151   144   138 1
  152   144   143 1
  153   145   144 1
  154   146   145 1
  155   147   146 1
  156   148   147 1
  157   149   148 1
  158   150   149 1
  159   151   150 1
  160   152   151 1
  161   153   152 1
  162   154   138 1
  163   155   138 1
  164   156   143 1
  165   157   147 1
  166   158   151 1
  167   160   159 1
  168   161   160 1
  169   162   161 1
  170   163   161 1
  171   164   163 1
  172   165   159 1
  173   165   164 1
  174   166   165 1
  175   167   166 1
  176   168   167 1
  177   169   168 1
  178   170   169 1
  179   171   170 1
  180   172   171 1
  181   173   172 1
  182   174   153 1
  183   174   173 1
  184   175   159 1
  185   176   159 1
  186   177   164 1
  187   178   168 1
  188   179   172 1
  189   180   179 1
  190   181   179 1
  191   182   179 1
  192   183   178 1
  193   184   178 1
  194   185   178 1
  195   186   177 1
  196   187   177 1
  197   188   177 1
  198   189   176 1
  199   190   176 1
  200   191   176 1
  201   192   175 1
  202   193   175 1
  203   194   175 1
  204   195   160 1
  205   196   160 1
  206   197   158 1
  207   198   158 1
  208   199   158 1
  209   200   157 1
  210   201   157 1
  211   202   157 1
  212   203   156 1
  213   204   156 1
  214   205   156 1
  215   206   155 1
  216   207   155 1
  217   208   155 1
  218   209   154 1
  219   210   154 1
  220   211   154 1
  221   212   141 1
  222   213   146 1
  223   214   145 1
  224   215   142 1
  225   216   142 1
  226   217   174 1
  227   218   173 1
  228   219   171 1
  229   220   170 1
  230   221   169 1
  231   222   140 1
  232   223   167 1
  233   224   166 1
  234   225   165 1
  235   226   163 1
  236   227   161 1
  237   228   139 1
  238   229   139 1
  239   230   153 1
  240   231   152 1
  241   232   150 1
  242   233   149 1
  243   234   148 1
  244   235   162 1
  245   65    153 1
  246   65    174 1
@<TRIPOS>SUBSTRUCTURE
      1 CLA               1 ****               0 ****  **** 
      2 LUT             138 ****               0 ****  **** 
