@<TRIPOS>MOLECULE
Cpptraj generated mol2 file.
  235   246     2     0     0
SMALL
USER_CHARGES


@<TRIPOS>ATOM
      1 CAA        79.2158   58.9159   33.9049 a2         1 CLA     -0.055900
      2 CAB        79.3888   61.9327   43.0158 c8         1 CLA     -0.148500
      3 CAC        72.5264   57.5066   42.2795 a2         1 CLA     -0.012600
      4 CAD        75.3442   55.7223   34.9529 ck         1 CLA      0.398800
      5 NA         78.4011   58.7929   37.2591 ns         1 CLA     -0.225500
      6 CBA        80.4335   58.9481   32.9100 a2         1 CLA     -0.135000
      7 CBB        80.4202   61.4062   43.7289 c0         1 CLA     -0.395200
      8 CBC        72.7101   56.0327   42.4510 a3         1 CLA     -0.037700
      9 CBD        76.7702   56.2541   34.6223 a1         1 CLA     -0.053900
     10 NB         78.2642   60.1507   39.9230 nm         1 CLA     -0.295700
     11 OBD        74.7062   55.0364   34.2092 o2         1 CLA     -0.494600
     12 CGA        80.9744   57.6214   32.2691 c4         1 CLA      0.827000
     13 CGD        77.7497   55.1037   34.4385 c4         1 CLA      0.655300
     14 ND         75.7377   57.6274   37.8798 nm         1 CLA     -0.291600
     15 CED        78.3699   52.8260   34.9821 a3         1 CLA      0.005400
     16 CHA        77.1196   57.2260   35.8206 cs         1 CLA     -0.123800
     17 CHB        80.0080   60.3748   38.2513 aa         1 CLA     -0.291900
     18 CHC        76.8772   60.2282   42.0164 aa         1 CLA     -0.090400
     19 CHD        73.8873   57.2426   39.4918 aa         1 CLA     -0.052000
     20 CMA        81.7344   58.4959   36.5977 a3         1 CLA     -0.230700
     21 CMB        81.3867   62.1508   40.4257 a3         1 CLA     -0.180800
     22 CMC        74.4302   59.5015   44.0914 a3         1 CLA     -0.134000
     23 CMD        72.7964   55.2152   37.1985 a3         1 CLA     -0.141100
     24 C1         82.0714   55.5258   32.7733 a2         1 CLA      0.023000
     25 C1A        78.2863   57.9913   36.1504 ac         1 CLA     -0.015100
     26 C1B        79.4677   60.6449   39.4878 cr         1 CLA      0.054700
     27 C1C        75.7497   59.4264   41.7465 cn         1 CLA     -0.005600
     28 C1D        74.4899   56.9784   38.2648 ap         1 CLA     -0.047300
     29 O1A        80.8400   57.2529   31.1611 o2         1 CLA     -0.610800
     30 O1D        78.7486   55.2511   33.7384 o2         1 CLA     -0.558200
     31 C2         82.8076   54.9968   34.0188 c8         1 CLA     -0.325100
     32 C2A        79.4929   58.1805   35.2238 a1         1 CLA      0.098600
     33 C2B        80.1081   61.4082   40.5762 cb         1 CLA      0.088500
     34 C2C        74.6181   59.0696   42.6462 cb         1 CLA      0.053700
     35 C2D        74.0219   56.1670   37.1278 cb         1 CLA      0.058900
     36 O2A        81.5969   56.8374   33.1899 o1         1 CLA     -0.437200
     37 O2D        77.5102   53.9960   35.2053 o1         1 CLA     -0.357600
     38 C3         83.9205   54.2952   34.0821 c5         1 CLA      0.031200
     39 C3A        80.4502   59.0983   36.0370 a1         1 CLA      0.166800
     40 C3B        79.2116   61.3157   41.6972 cb         1 CLA      0.035000
     41 C3C        73.8368   58.1803   41.8803 cb         1 CLA     -0.089900
     42 C3D        75.0378   56.2569   36.2195 cb         1 CLA     -0.035900
     43 C4         84.1179   52.8203   34.0319 a3         1 CLA     -0.053300
     44 C4A        79.5868   59.4991   37.2573 ac         1 CLA      0.001800
     45 C4B        78.0182   60.5625   41.2507 cn         1 CLA     -0.020900
     46 C4C        74.4198   58.0289   40.5707 cr         1 CLA     -0.044400
     47 C4D        76.0736   57.0425   36.7006 c6         1 CLA     -0.046000
     48 C5         85.2050   55.1472   34.0724 a2         1 CLA     -0.070400
     49 C6         85.2601   56.3932   35.0131 a2         1 CLA      0.043900
     50 C7         85.0598   55.9976   36.4609 a2         1 CLA     -0.150000
     51 C8         85.2355   57.0216   37.7210 a1         1 CLA      0.064200
     52 C9         86.6423   57.5218   37.7398 a3         1 CLA     -0.259300
     53 C10        84.7927   56.3458   38.9881 a2         1 CLA     -0.071900
     54 C11        84.5770   57.3319   40.1379 a2         1 CLA      0.014500
     55 C12        84.1153   56.5763   41.4133 a2         1 CLA     -0.112100
     56 C13        83.4891   57.4053   42.5330 a1         1 CLA      0.089200
     57 C14        84.5425   58.4699   42.8984 a3         1 CLA     -0.239100
     58 C15        82.9009   56.5419   43.7597 a2         1 CLA     -0.102200
     59 C16        81.6536   55.6807   43.5159 a2         1 CLA      0.023900
     60 C17        80.3375   56.4219   43.1689 a2         1 CLA     -0.105700
     61 C18        79.7606   57.4267   44.1204 a1         1 CLA      0.206800
     62 C19        78.3365   57.9740   43.6833 a3         1 CLA     -0.280100
     63 C20        79.7088   56.8472   45.5816 a3         1 CLA     -0.280100
     64 NC         75.5710   58.7586   40.5349 nx         1 CLA     -0.309200
     65 MG         76.9265   58.9960   38.7678 mg         1 CLA      0.895000
     66 HMD3       71.9583   55.8712   37.1191 dc         1 CLA      0.064300
     67 HMD2       72.8925   54.5557   36.3056 dc         1 CLA      0.064300
     68 HMD1       72.8361   54.8472   38.2276 dc         1 CLA      0.064300
     69 HMC3       73.4478   60.0030   44.3489 dc         1 CLA      0.052100
     70 HMC2       74.4560   58.6017   44.6486 dc         1 CLA      0.052100
     71 HMC1       75.2520   60.1590   44.3678 dc         1 CLA      0.052100
     72 HMB3       81.5436   62.7845   39.5660 dc         1 CLA      0.063600
     73 HMB2       81.3109   62.7268   41.3520 dc         1 CLA      0.063600
     74 HMB1       82.3445   61.4628   40.6056 dc         1 CLA      0.063600
     75 HMA3       81.6378   57.5397   37.1479 dc         1 CLA      0.058300
     76 HMA2       82.4911   58.4194   35.8145 dc         1 CLA      0.058300
     77 HMA1       82.1216   59.2431   37.2688 dc         1 CLA      0.058300
     78 HED3       78.1353   52.0793   35.7595 dc         1 CLA      0.079300
     79 HED2       78.3404   52.3794   34.0130 dc         1 CLA      0.079300
     80 HED1       79.4192   53.0960   35.1733 dc         1 CLA      0.079300
     81 HBC3       71.8851   55.5333   42.9076 dc         1 CLA      0.016300
     82 HBC2       72.9260   55.6671   41.4735 dc         1 CLA      0.016300
     83 HBC1       73.5786   55.7401   42.9964 dc         1 CLA      0.016300
     84 HBB2       80.7749   61.6882   44.7519 da         1 CLA      0.183000
     85 HBB1       81.1012   60.7067   43.2466 da         1 CLA      0.183000
     86 HBA2       80.0697   59.4827   32.0198 dc         1 CLA      0.029400
     87 HBA1       81.3318   59.4001   33.2402 dc         1 CLA      0.029400
     88 HAC2       72.2273   57.9202   43.2303 dc         1 CLA      0.029300
     89 HAC1       71.7626   57.6006   41.5266 dc         1 CLA      0.029300
     90 HAA2       78.3674   58.3743   33.4352 dc         1 CLA      0.028700
     91 HAA1       78.8816   59.9064   34.1923 dc         1 CLA      0.028700
     92 H203       79.2798   57.5753   46.2561 dc         1 CLA      0.065600
     93 H202       79.1427   55.9289   45.5907 dc         1 CLA      0.065600
     94 H201       80.7407   56.7972   46.0472 dc         1 CLA      0.065600
     95 H193       77.9980   58.9026   44.1610 dc         1 CLA      0.065600
     96 H192       78.4129   58.1953   42.5856 dc         1 CLA      0.065600
     97 H191       77.5323   57.2183   43.8817 dc         1 CLA      0.065600
     98 H172       80.3771   56.8601   42.1763 dc         1 CLA      0.027600
     99 H171       79.6191   55.6592   42.9796 dc         1 CLA      0.027600
    100 H162       81.9764   54.9937   42.7652 dc         1 CLA      0.002900
    101 H161       81.3084   55.2914   44.4777 dc         1 CLA      0.002900
    102 H152       83.7807   55.9594   44.0870 dc         1 CLA      0.029100
    103 H151       82.5998   57.2406   44.5175 dc         1 CLA      0.029100
    104 H143       84.2152   59.1923   43.6474 dc         1 CLA      0.063600
    105 H142       85.4932   58.1825   43.3970 dc         1 CLA      0.063600
    106 H141       84.8069   59.1203   42.1136 dc         1 CLA      0.063600
    107 H122       83.4761   55.7617   41.0660 dc         1 CLA      0.032500
    108 H121       85.0122   56.0853   41.8223 dc         1 CLA      0.032500
    109 H112       85.4716   57.7750   40.3371 dc         1 CLA      0.006600
    110 H111       83.7657   58.0313   39.7699 dc         1 CLA      0.006600
    111 H102       83.8159   55.9483   38.8316 dc         1 CLA      0.024100
    112 H101       85.5321   55.5819   39.1594 dc         1 CLA      0.024100
    113 HHD        72.9435   56.6601   39.5543 da         1 CLA      0.174300
    114 HHC        76.8931   60.8171   42.9715 da         1 CLA      0.136800
    115 HHB        80.9561   60.9290   38.2006 da         1 CLA      0.138300
    116 HBD        76.6919   56.7794   33.6994 dc         1 CLA      0.107700
    117 HAB        78.6800   62.5725   43.5399 da         1 CLA      0.155200
    118 H93        86.7571   58.2965   38.5241 dc         1 CLA      0.069500
    119 H92        87.3162   56.6754   37.7625 dc         1 CLA      0.069500
    120 H91        86.8544   58.1421   36.8243 dc         1 CLA      0.069500
    121 H8         84.6135   57.8820   37.5857 dc         1 CLA      0.029300
    122 H72        84.0628   55.7932   36.5027 dc         1 CLA      0.044400
    123 H71        85.5821   55.0905   36.6397 dc         1 CLA      0.044400
    124 H62        86.2755   56.6896   34.8225 dc         1 CLA      0.015600
    125 H61        84.5706   57.2318   34.8412 dc         1 CLA      0.015600
    126 H52        86.0837   54.4945   34.2555 dc         1 CLA      0.033200
    127 H51        85.3089   55.4615   33.0422 dc         1 CLA      0.033200
    128 H43        83.0769   52.4781   34.1091 dc         1 CLA      0.037000
    129 H42        84.5675   52.5242   33.1178 dc         1 CLA      0.037000
    130 H41        84.6818   52.3158   34.7623 dc         1 CLA      0.037000
    131 H3A        80.7880   60.1214   35.6913 dc         1 CLA      0.041100
    132 H2A        80.0814   57.2058   35.0677 dc         1 CLA      0.083100
    133 H2         82.4563   55.4008   34.9827 da         1 CLA      0.180900
    134 H18        80.3359   58.2981   44.0211 dc         1 CLA     -0.003900
    135 H13        82.5819   57.8847   42.0264 dc         1 CLA      0.019700
    136 H12        81.2786   54.9667   32.5862 dc         1 CLA      0.120400
    137 H11        82.7046   55.7319   31.9518 dc         1 CLA      0.120400
    138 C1         69.1707   61.3964   50.7264 Z1         2 LUT      0.509236
    139 C2         67.7551   61.2789   51.2497 Z2         2 LUT     -0.434695
    140 C3         67.0849   62.5431   51.6417 Z3         2 LUT      0.437453
    141 O3         67.6500   62.7341   52.9455 S1         2 LUT     -0.547129
    142 C4         67.4359   63.6981   50.6944 Z4         2 LUT     -0.468603
    143 C5         68.2143   63.3801   49.4368 Z5         2 LUT      0.279246
    144 C6         69.1531   62.4469   49.5331 Z6         2 LUT     -0.305473
    145 C7         69.8004   61.9547   48.2335 Z7         2 LUT      0.069402
    146 C8         70.4709   62.8126   47.3662 Z8         2 LUT     -0.191631
    147 C9         71.1320   62.3789   46.1098 Z9         2 LUT      0.196698
    148 C10        71.9213   63.2812   45.4435 Y1         2 LUT     -0.208611
    149 C11        72.6740   63.1662   44.2273 Y2         2 LUT      0.030784
    150 C12        73.8067   63.8395   43.9077 Y3         2 LUT     -0.220316
    151 C13        74.5661   63.6772   42.7338 Y4         2 LUT      0.215937
    152 C14        75.7774   64.3238   42.6551 Y5         2 LUT     -0.185793
    153 C15        76.8384   64.3840   41.5895 Y6         2 LUT     -0.057835
    154 C16        69.6094   59.9808   50.4572 Y7         2 LUT     -0.405615
    155 C17        70.1095   62.0097   51.8221 Y7         2 LUT     -0.405615
    156 C18        67.7976   64.2452   48.1754 Y9         2 LUT     -0.369639
    157 C19        70.8136   61.0594   45.4480 W1         2 LUT     -0.333362
    158 C20        74.1097   62.5861   41.7353 W2         2 LUT     -0.323439
    159 C21        88.0459   66.2162   34.7346 Z1         2 LUT      0.406104
    160 C22        88.6494   65.5040   33.4603 Z2         2 LUT     -0.404965
    161 C23        88.3108   66.2333   32.1515 Z3         2 LUT      0.391255
    162 O23        88.8230   65.4113   31.0711 S1         2 LUT     -0.528210
    163 C24        86.9003   66.9095   32.1612 W6         2 LUT     -0.258361
    164 C25        86.1339   67.0744   33.2481 Z5         2 LUT      0.133546
    165 C26        86.4553   66.3085   34.5216 W8         2 LUT     -0.147008
    166 C27        85.7015   66.9808   35.6853 Z7         2 LUT      0.023843
    167 C28        84.7729   66.3428   36.4220 Z8         2 LUT     -0.216987
    168 C29        84.1577   66.7552   37.7186 Z9         2 LUT      0.206524
    169 C30        82.8883   66.2306   38.0968 Y1         2 LUT     -0.215556
    170 C31        82.1553   66.4291   39.3225 Y2         2 LUT      0.025142
    171 C32        80.9783   65.8738   39.5993 Y3         2 LUT     -0.212209
    172 C33        80.2365   65.8573   40.8131 Y4         2 LUT      0.240937
    173 C34        79.0869   65.1288   40.7959 Y5         2 LUT     -0.218862
    174 C35        78.0029   65.0984   41.7143 Y6         2 LUT     -0.023547
    175 C36        88.6113   67.6404   34.8294 Y7         2 LUT     -0.393485
    176 C37        88.4450   65.4186   35.9350 Y7         2 LUT     -0.393485
    177 C38        84.7883   67.7369   33.1079 Y9         2 LUT     -0.387526
    178 C39        84.9301   67.6346   38.6637 W1         2 LUT     -0.322618
    179 C40        80.8294   66.5148   41.9994 W2         2 LUT     -0.358472
    180 H403       80.5130   66.0024   42.9230 R7         2 LUT      0.097720
    181 H402       81.8615   66.4270   41.8843 R7         2 LUT      0.097720
    182 H401       80.6150   67.5817   42.0806 R7         2 LUT      0.097720
    183 H393       84.4146   68.5830   38.8457 R4         2 LUT      0.082505
    184 H392       85.0366   67.1673   39.6521 R4         2 LUT      0.082505
    185 H391       85.9511   67.8967   38.3853 R4         2 LUT      0.082505
    186 H383       84.0124   67.1410   33.6894 R1         2 LUT      0.104030
    187 H382       84.7545   68.7620   33.5601 R1         2 LUT      0.104030
    188 H381       84.3416   67.8765   32.0668 R1         2 LUT      0.104030
    189 H373       88.1930   64.3494   35.7336 T4         2 LUT      0.089537
    190 H372       89.5263   65.4021   36.1819 T4         2 LUT      0.089537
    191 H371       87.9455   65.7765   36.8624 T4         2 LUT      0.089537
    192 H363       88.4462   68.2614   33.9999 T4         2 LUT      0.089537
    193 H362       88.2871   68.1309   35.8226 T4         2 LUT      0.089537
    194 H361       89.7342   67.6536   34.8482 T4         2 LUT      0.089537
    195 H222       89.7820   65.4166   33.4999 U2         2 LUT      0.127376
    196 H221       88.3154   64.4517   33.3752 U2         2 LUT      0.127376
    197 H203       73.0790   62.8194   41.3651 R7         2 LUT      0.087068
    198 H202       74.8285   62.3310   40.9661 R7         2 LUT      0.087068
    199 H201       74.0515   61.6256   42.2478 R7         2 LUT      0.087068
    200 H193       71.4025   60.7684   44.5924 R4         2 LUT      0.089716
    201 H192       70.9736   60.1244   46.0616 R4         2 LUT      0.089716
    202 H191       69.7549   60.9226   45.2087 R4         2 LUT      0.089716
    203 H183       68.5884   64.9704   47.9083 R1         2 LUT      0.094572
    204 H182       67.3806   63.6389   47.3618 R1         2 LUT      0.094572
    205 H181       67.0249   64.8260   48.4036 R1         2 LUT      0.094572
    206 H173       69.8239   61.7059   52.8285 T4         2 LUT      0.093752
    207 H172       71.1704   61.7725   51.5963 T4         2 LUT      0.093752
    208 H171       70.0629   63.1021   51.8111 T4         2 LUT      0.093752
    209 H163       69.0504   59.5124   49.5626 T4         2 LUT      0.093752
    210 H162       70.6015   60.1259   50.1606 T4         2 LUT      0.093752
    211 H161       69.5159   59.2672   51.2803 T4         2 LUT      0.093752
    212 HO3        67.0554   63.2715   53.4902 Q1         2 LUT      0.300121
    213 H8         70.6148   63.8417   47.5291 U7         2 LUT      0.080784
    214 H7         69.5901   60.9104   48.0182 U6         2 LUT      0.042190
    215 H42        66.3991   64.0911   50.3772 U5         2 LUT      0.145166
    216 H41        67.8710   64.6163   51.1819 U5         2 LUT      0.145166
    217 H35        78.0358   65.6776   42.6354 T3         2 LUT      0.077919
    218 H34        78.8296   64.4528   39.9190 T2         2 LUT      0.073626
    219 H32        80.5495   65.2488   38.8006 T1         2 LUT      0.092510
    220 H31        82.5651   67.0449   40.1087 U9         2 LUT      0.070048
    221 H30        82.3598   65.5223   37.4432 U8         2 LUT      0.085442
    222 H3         66.0198   62.3668   51.5933 U3         2 LUT     -0.031596
    223 H28        84.1709   65.5498   35.9527 U7         2 LUT      0.084728
    224 H27        86.1285   67.9676   35.9806 U6         2 LUT      0.087291
    225 H26        86.0533   65.3026   34.3699 Q6         2 LUT      0.075325
    226 H24        86.6813   67.5021   31.2409 Q5         2 LUT      0.094482
    227 H23        89.0841   67.0125   32.2096 U3         2 LUT     -0.024869
    228 H22        67.0871   60.9348   50.4189 U2         2 LUT      0.127376
    229 H21        67.6713   60.5655   52.0367 U2         2 LUT      0.127376
    230 H15        76.6068   63.7597   40.6901 T3         2 LUT      0.093200
    231 H14        76.0815   64.9069   43.5238 T2         2 LUT      0.068865
    232 H12        74.1382   64.5275   44.6450 T1         2 LUT      0.095507
    233 H11        72.3316   62.4279   43.5177 U9         2 LUT      0.068930
    234 H10        72.0855   64.2836   45.9432 U8         2 LUT      0.083911
    235 H1         88.7946   65.8647   30.2140 Q1         2 LUT      0.297311
@<TRIPOS>BOND
    1     6     1 1
    2     7     2 1
    3     8     3 1
    4     9     4 1
    5    11     4 1
    6    12     6 1
    7    13     9 1
    8    16     9 1
    9    25     5 1
   10    25    16 1
   11    26    10 1
   12    26    17 1
   13    27    18 1
   14    28    14 1
   15    28    19 1
   16    29    12 1
   17    30    13 1
   18    31    24 1
   19    32     1 1
   20    32    25 1
   21    33    21 1
   22    33    26 1
   23    34    22 1
   24    34    27 1
   25    35    23 1
   26    35    28 1
   27    36    12 1
   28    36    24 1
   29    37    13 1
   30    37    15 1
   31    38    31 1
   32    39    20 1
   33    39    32 1
   34    40     2 1
   35    40    33 1
   36    41     3 1
   37    41    34 1
   38    42     4 1
   39    42    35 1
   40    43    38 1
   41    44     5 1
   42    44    17 1
   43    44    39 1
   44    45    10 1
   45    45    18 1
   46    45    40 1
   47    46    19 1
   48    46    41 1
   49    47    14 1
   50    47    16 1
   51    47    42 1
   52    48    38 1
   53    49    48 1
   54    50    49 1
   55    51    50 1
   56    52    51 1
   57    53    51 1
   58    54    53 1
   59    55    54 1
   60    56    55 1
   61    57    56 1
   62    58    56 1
   63    59    58 1
   64    60    59 1
   65    61    60 1
   66    62    61 1
   67    63    61 1
   68    64    27 1
   69    64    46 1
   70    65     5 1
   71    65    10 1
   72    65    64 1
   73    65    14 1
   74    66    23 1
   75    67    23 1
   76    68    23 1
   77    69    22 1
   78    70    22 1
   79    71    22 1
   80    72    21 1
   81    73    21 1
   82    74    21 1
   83    75    20 1
   84    76    20 1
   85    77    20 1
   86    78    15 1
   87    79    15 1
   88    80    15 1
   89    81     8 1
   90    82     8 1
   91    83     8 1
   92    84     7 1
   93    85     7 1
   94    86     6 1
   95    87     6 1
   96    88     3 1
   97    89     3 1
   98    90     1 1
   99    91     1 1
  100    92    63 1
  101    93    63 1
  102    94    63 1
  103    95    62 1
  104    96    62 1
  105    97    62 1
  106    98    60 1
  107    99    60 1
  108   100    59 1
  109   101    59 1
  110   102    58 1
  111   103    58 1
  112   104    57 1
  113   105    57 1
  114   106    57 1
  115   107    55 1
  116   108    55 1
  117   109    54 1
  118   110    54 1
  119   111    53 1
  120   112    53 1
  121   113    19 1
  122   114    18 1
  123   115    17 1
  124   116     9 1
  125   117     2 1
  126   118    52 1
  127   119    52 1
  128   120    52 1
  129   121    51 1
  130   122    50 1
  131   123    50 1
  132   124    49 1
  133   125    49 1
  134   126    48 1
  135   127    48 1
  136   128    43 1
  137   129    43 1
  138   130    43 1
  139   131    39 1
  140   132    32 1
  141   133    31 1
  142   134    61 1
  143   135    56 1
  144   136    24 1
  145   137    24 1
  146   139   138 1
  147   140   139 1
  148   141   140 1
  149   142   140 1
  150   143   142 1
  151   144   138 1
  152   144   143 1
  153   145   144 1
  154   146   145 1
  155   147   146 1
  156   148   147 1
  157   149   148 1
  158   150   149 1
  159   151   150 1
  160   152   151 1
  161   153   152 1
  162   154   138 1
  163   155   138 1
  164   156   143 1
  165   157   147 1
  166   158   151 1
  167   160   159 1
  168   161   160 1
  169   162   161 1
  170   163   161 1
  171   164   163 1
  172   165   159 1
  173   165   164 1
  174   166   165 1
  175   167   166 1
  176   168   167 1
  177   169   168 1
  178   170   169 1
  179   171   170 1
  180   172   171 1
  181   173   172 1
  182   174   153 1
  183   174   173 1
  184   175   159 1
  185   176   159 1
  186   177   164 1
  187   178   168 1
  188   179   172 1
  189   180   179 1
  190   181   179 1
  191   182   179 1
  192   183   178 1
  193   184   178 1
  194   185   178 1
  195   186   177 1
  196   187   177 1
  197   188   177 1
  198   189   176 1
  199   190   176 1
  200   191   176 1
  201   192   175 1
  202   193   175 1
  203   194   175 1
  204   195   160 1
  205   196   160 1
  206   197   158 1
  207   198   158 1
  208   199   158 1
  209   200   157 1
  210   201   157 1
  211   202   157 1
  212   203   156 1
  213   204   156 1
  214   205   156 1
  215   206   155 1
  216   207   155 1
  217   208   155 1
  218   209   154 1
  219   210   154 1
  220   211   154 1
  221   212   141 1
  222   213   146 1
  223   214   145 1
  224   215   142 1
  225   216   142 1
  226   217   174 1
  227   218   173 1
  228   219   171 1
  229   220   170 1
  230   221   169 1
  231   222   140 1
  232   223   167 1
  233   224   166 1
  234   225   165 1
  235   226   163 1
  236   227   161 1
  237   228   139 1
  238   229   139 1
  239   230   153 1
  240   231   152 1
  241   232   150 1
  242   233   149 1
  243   234   148 1
  244   235   162 1
  245   65    153 1
  246   65    174 1
@<TRIPOS>SUBSTRUCTURE
      1 CLA               1 ****               0 ****  **** 
      2 LUT             138 ****               0 ****  **** 
