@<TRIPOS>MOLECULE
Cpptraj generated mol2 file.
  235   246     2     0     0
SMALL
USER_CHARGES


@<TRIPOS>ATOM
      1 CAA        77.7657   57.7238   34.9235 a2         1 CLA     -0.055900
      2 CAB        77.6330   62.1857   43.7349 c8         1 CLA     -0.148500
      3 CAC        70.8876   58.1829   43.4687 a2         1 CLA     -0.012600
      4 CAD        73.5242   55.3195   36.2574 ck         1 CLA      0.398800
      5 NA         76.7783   58.3961   38.3359 ns         1 CLA     -0.225500
      6 CBA        78.9899   57.5556   34.0701 a2         1 CLA     -0.135000
      7 CBB        78.7248   62.1877   44.5550 c0         1 CLA     -0.395200
      8 CBC        71.2466   56.9515   44.3619 a3         1 CLA     -0.037700
      9 CBD        75.1137   55.6358   36.1147 a1         1 CLA     -0.053900
     10 NB         76.6092   60.1352   40.8952 nm         1 CLA     -0.295700
     11 OBD        72.7905   54.6022   35.5690 o2         1 CLA     -0.494600
     12 CGA        79.5478   56.1659   33.7549 c4         1 CLA      0.827000
     13 CGD        75.9381   54.3961   36.2849 c4         1 CLA      0.655300
     14 ND         73.9373   57.7365   38.9978 nm         1 CLA     -0.291600
     15 CED        75.8187   52.2198   37.3059 a3         1 CLA      0.005400
     16 CHA        75.4192   56.7756   37.1651 cs         1 CLA     -0.123800
     17 CHB        78.5417   59.8683   39.3090 aa         1 CLA     -0.291900
     18 CHC        75.2524   60.5850   42.8411 aa         1 CLA     -0.090400
     19 CHD        71.9775   57.8563   40.4723 aa         1 CLA     -0.052000
     20 CMA        80.3248   57.9022   37.5277 a3         1 CLA     -0.230700
     21 CMB        79.8936   61.7129   41.3651 a3         1 CLA     -0.180800
     22 CMC        72.9862   59.9614   45.0061 a3         1 CLA     -0.134000
     23 CMD        70.6789   55.7685   38.5011 a3         1 CLA     -0.141100
     24 C1         80.1248   54.1946   34.8632 a2         1 CLA      0.023000
     25 C1A        76.6199   57.4912   37.2802 ac         1 CLA     -0.015100
     26 C1B        77.8823   60.3916   40.4695 cr         1 CLA      0.054700
     27 C1C        74.1495   59.7845   42.5944 cn         1 CLA     -0.005600
     28 C1D        72.5851   57.3646   39.3051 ap         1 CLA     -0.047300
     29 O1A        79.4309   55.5545   32.6614 o2         1 CLA     -0.610800
     30 O1D        76.9643   54.0920   35.6768 o2         1 CLA     -0.558200
     31 C2         80.3202   53.6067   36.1991 c8         1 CLA     -0.325100
     32 C2A        77.8987   57.3489   36.4477 a1         1 CLA      0.098600
     33 C2B        78.4448   61.2523   41.4166 cb         1 CLA      0.088500
     34 C2C        73.0892   59.4756   43.5398 cb         1 CLA      0.053700
     35 C2D        72.0399   56.3735   38.3784 cb         1 CLA      0.058900
     36 O2A        80.1131   55.6326   34.8829 o1         1 CLA     -0.437200
     37 O2D        75.2171   53.5400   37.1503 o1         1 CLA     -0.357600
     38 C3         81.4616   53.4232   36.8964 c5         1 CLA      0.031200
     39 C3A        78.9146   58.3780   37.1853 a1         1 CLA      0.166800
     40 C3B        77.5650   61.5426   42.3863 cb         1 CLA      0.035000
     41 C3C        72.0925   58.7533   42.7881 cb         1 CLA     -0.089900
     42 C3D        73.1034   56.0990   37.4787 cb         1 CLA     -0.035900
     43 C4         82.1917   52.1317   36.7669 a3         1 CLA     -0.053300
     44 C4A        78.0552   58.8743   38.3716 ac         1 CLA      0.001800
     45 C4B        76.3792   60.8495   42.0339 cn         1 CLA     -0.020900
     46 C4C        72.6444   58.5641   41.4814 cr         1 CLA     -0.044400
     47 C4D        74.2696   56.9284   37.9272 c6         1 CLA     -0.046000
     48 C5         81.7119   54.2569   38.0838 a2         1 CLA     -0.070400
     49 C6         82.8737   55.2691   38.0136 a2         1 CLA      0.043900
     50 C7         82.8815   56.0530   39.2857 a2         1 CLA     -0.150000
     51 C8         84.0263   57.1662   39.5027 a1         1 CLA      0.064200
     52 C9         85.4960   56.5786   39.2167 a3         1 CLA     -0.259300
     53 C10        83.8907   57.6243   40.9862 a2         1 CLA     -0.071900
     54 C11        82.6534   58.2870   41.5848 a2         1 CLA      0.014500
     55 C12        82.8915   59.2532   42.7166 a2         1 CLA     -0.112100
     56 C13        83.7145   58.6365   43.9265 a1         1 CLA      0.089200
     57 C14        82.8248   57.7004   44.8038 a3         1 CLA     -0.239100
     58 C15        84.3517   59.7985   44.7034 a2         1 CLA     -0.102200
     59 C16        83.4375   61.0617   45.0468 a2         1 CLA      0.023900
     60 C17        84.0338   61.8323   46.2308 a2         1 CLA     -0.105700
     61 C18        83.0357   62.4980   47.2551 a1         1 CLA      0.206800
     62 C19        83.7953   63.0909   48.4754 a3         1 CLA     -0.280100
     63 C20        82.2560   63.6041   46.4616 a3         1 CLA     -0.280100
     64 NC         73.8835   59.1968   41.3964 nx         1 CLA     -0.309200
     65 MG         75.2025   58.9951   39.8223 mg         1 CLA      0.895000
     66 HMD3       70.6796   54.7281   38.6089 dc         1 CLA      0.064300
     67 HMD2       70.2792   56.0802   39.4640 dc         1 CLA      0.064300
     68 HMD1       70.1367   55.9598   37.5881 dc         1 CLA      0.064300
     69 HMC3       72.0197   60.4308   45.3381 dc         1 CLA      0.052100
     70 HMC2       73.1685   59.0636   45.6345 dc         1 CLA      0.052100
     71 HMC1       73.7014   60.6892   45.2949 dc         1 CLA      0.052100
     72 HMB3       80.3759   61.9942   42.3238 dc         1 CLA      0.063600
     73 HMB2       80.3789   60.7741   41.0307 dc         1 CLA      0.063600
     74 HMB1       79.9862   62.6090   40.7102 dc         1 CLA      0.063600
     75 HMA3       80.9039   58.7010   37.8949 dc         1 CLA      0.058300
     76 HMA2       80.1878   57.1904   38.3115 dc         1 CLA      0.058300
     77 HMA1       80.7623   57.3894   36.7206 dc         1 CLA      0.058300
     78 HED3       75.2570   51.6305   38.0464 dc         1 CLA      0.079300
     79 HED2       75.9212   51.6606   36.3937 dc         1 CLA      0.079300
     80 HED1       76.8604   52.3141   37.6542 dc         1 CLA      0.079300
     81 HBC3       70.4214   56.5232   44.8968 dc         1 CLA      0.016300
     82 HBC2       71.6853   56.1263   43.8868 dc         1 CLA      0.016300
     83 HBC1       71.9098   57.2565   45.1458 dc         1 CLA      0.016300
     84 HBB2       78.7534   62.5829   45.5913 da         1 CLA      0.183000
     85 HBB1       79.5582   61.5510   44.2580 da         1 CLA      0.183000
     86 HBA2       78.8420   58.1028   33.1238 dc         1 CLA      0.029400
     87 HBA1       79.8034   57.9995   34.6217 dc         1 CLA      0.029400
     88 HAC2       70.4173   58.9274   44.1267 dc         1 CLA      0.029300
     89 HAC1       70.0890   57.9703   42.8285 dc         1 CLA      0.029300
     90 HAA2       76.9130   57.2039   34.4436 dc         1 CLA      0.028700
     91 HAA1       77.5751   58.7725   34.9179 dc         1 CLA      0.028700
     92 H203       81.2952   63.9409   46.8939 dc         1 CLA      0.065600
     93 H202       82.8168   64.5169   46.2366 dc         1 CLA      0.065600
     94 H201       82.1098   63.0576   45.5556 dc         1 CLA      0.065600
     95 H193       84.6495   63.6114   48.0368 dc         1 CLA      0.065600
     96 H192       83.0321   63.7277   48.9423 dc         1 CLA      0.065600
     97 H191       84.1578   62.2792   49.0934 dc         1 CLA      0.065600
     98 H172       84.6432   61.1071   46.8138 dc         1 CLA      0.027600
     99 H171       84.6837   62.5618   45.8672 dc         1 CLA      0.027600
    100 H162       83.2548   61.7203   44.1622 dc         1 CLA      0.002900
    101 H161       82.5341   60.4813   45.3769 dc         1 CLA      0.002900
    102 H152       84.7993   59.3764   45.5691 dc         1 CLA      0.029100
    103 H151       85.2171   60.2603   44.1485 dc         1 CLA      0.029100
    104 H143       81.9209   58.0903   45.2548 dc         1 CLA      0.063600
    105 H142       82.4712   56.8818   44.1204 dc         1 CLA      0.063600
    106 H141       83.4763   57.1838   45.5066 dc         1 CLA      0.063600
    107 H122       83.4255   60.0592   42.3107 dc         1 CLA      0.032500
    108 H121       82.0817   59.7172   43.1110 dc         1 CLA      0.032500
    109 H112       82.2803   58.8265   40.7161 dc         1 CLA      0.006600
    110 H111       81.8850   57.5559   41.7779 dc         1 CLA      0.006600
    111 H102       83.9527   56.8046   41.6927 dc         1 CLA      0.024100
    112 H101       84.6997   58.3167   41.1649 dc         1 CLA      0.024100
    113 HHD        70.9348   57.5674   40.6580 da         1 CLA      0.174300
    114 HHC        75.3659   61.0207   43.8397 da         1 CLA      0.136800
    115 HHB        79.5623   60.2306   39.1407 da         1 CLA      0.138300
    116 HBD        75.2307   55.9911   35.0874 dc         1 CLA      0.107700
    117 HAB        76.7695   62.6586   44.0914 da         1 CLA      0.155200
    118 H93        85.5598   56.2937   38.1762 dc         1 CLA      0.069500
    119 H92        86.2546   57.3559   39.3774 dc         1 CLA      0.069500
    120 H91        85.7720   55.7365   39.8527 dc         1 CLA      0.069500
    121 H8         83.8801   57.9759   38.8832 dc         1 CLA      0.029300
    122 H72        81.9764   56.5248   39.4447 dc         1 CLA      0.044400
    123 H71        82.8155   55.3753   40.1705 dc         1 CLA      0.044400
    124 H62        83.8322   54.8030   37.7485 dc         1 CLA      0.015600
    125 H61        82.6031   55.8681   37.1830 dc         1 CLA      0.015600
    126 H52        80.8364   54.8258   38.4081 dc         1 CLA      0.033200
    127 H51        81.9653   53.5685   38.8720 dc         1 CLA      0.033200
    128 H43        81.5128   51.5519   36.1805 dc         1 CLA      0.037000
    129 H42        83.0555   52.4605   36.1844 dc         1 CLA      0.037000
    130 H41        82.5254   51.6301   37.7054 dc         1 CLA      0.037000
    131 H3A        79.1224   59.3195   36.6218 dc         1 CLA      0.041100
    132 H2A        78.1701   56.3508   36.5025 dc         1 CLA      0.083100
    133 H2         79.5312   53.0412   36.6792 da         1 CLA      0.180900
    134 H18        82.4051   61.6871   47.6142 dc         1 CLA     -0.003900
    135 H13        84.5091   58.0384   43.5668 dc         1 CLA      0.019700
    136 H12        79.1361   53.8271   34.6997 dc         1 CLA      0.120400
    137 H11        80.9070   53.8852   34.1278 dc         1 CLA      0.120400
    138 C1         67.0099   62.6885   50.7530 Z1         2 LUT      0.509236
    139 C2         67.0965   63.9629   51.5025 Z2         2 LUT     -0.434695
    140 C3         65.7660   64.7066   51.4933 Z3         2 LUT      0.437453
    141 O3         65.9878   66.1354   51.8017 S1         2 LUT     -0.547129
    142 C4         65.0268   64.6149   50.0848 Z4         2 LUT     -0.468603
    143 C5         65.7539   63.9202   48.9081 Z5         2 LUT      0.279246
    144 C6         66.7278   62.9433   49.2805 Z6         2 LUT     -0.305473
    145 C7         67.7006   62.4090   48.2690 Z7         2 LUT      0.069402
    146 C8         68.3159   62.9951   47.1131 Z8         2 LUT     -0.191631
    147 C9         69.1104   62.3960   46.1320 Z9         2 LUT      0.196698
    148 C10        70.1251   63.1732   45.5482 Y1         2 LUT     -0.208611
    149 C11        70.7670   62.9864   44.1899 Y2         2 LUT      0.030784
    150 C12        71.8320   63.7578   43.7453 Y3         2 LUT     -0.220316
    151 C13        72.5747   63.7604   42.4427 Y4         2 LUT      0.215937
    152 C14        73.8387   64.4057   42.3898 Y5         2 LUT     -0.185793
    153 C15        74.8972   64.2296   41.4510 Y6         2 LUT     -0.057835
    154 C16        65.9267   61.7395   51.4795 Y7         2 LUT     -0.405615
    155 C17        68.3425   61.9515   51.0178 Y7         2 LUT     -0.405615
    156 C18        65.4337   64.4276   47.5211 Y9         2 LUT     -0.369639
    157 C19        68.6520   61.1077   45.6058 W1         2 LUT     -0.333362
    158 C20        72.2052   62.7367   41.4073 W2         2 LUT     -0.323439
    159 C21        86.4826   64.6710   35.5503 Z1         2 LUT      0.406104
    160 C22        87.1356   63.9393   34.3562 Z2         2 LUT     -0.404965
    161 C23        87.2681   64.7322   33.0919 Z3         2 LUT      0.391255
    162 O23        87.6502   63.7375   32.1498 S1         2 LUT     -0.528210
    163 C24        86.0527   65.6990   32.8491 W6         2 LUT     -0.258361
    164 C25        85.1026   65.8825   33.7201 Z5         2 LUT      0.133546
    165 C26        85.1364   65.1518   35.1164 W8         2 LUT     -0.147008
    166 C27        84.4161   65.8909   36.2210 Z7         2 LUT      0.023843
    167 C28        83.4303   65.4205   37.0642 Z8         2 LUT     -0.216987
    168 C29        82.8268   66.0516   38.2376 Z9         2 LUT      0.206524
    169 C30        81.5924   65.7031   38.5212 Y1         2 LUT     -0.215556
    170 C31        80.7083   66.0402   39.6047 Y2         2 LUT      0.025142
    171 C32        79.4780   65.2918   39.8277 Y3         2 LUT     -0.212209
    172 C33        78.4685   65.4932   40.8143 Y4         2 LUT      0.240937
    173 C34        77.2984   64.7015   40.8049 Y5         2 LUT     -0.218862
    174 C35        76.1622   64.8009   41.6923 Y6         2 LUT     -0.023547
    175 C36        87.4508   65.8846   35.9426 Y7         2 LUT     -0.393485
    176 C37        86.4821   63.6641   36.6967 Y7         2 LUT     -0.393485
    177 C38        83.9104   66.7215   33.4008 Y9         2 LUT     -0.387526
    178 C39        83.7112   67.0173   38.9773 W1         2 LUT     -0.322618
    179 C40        78.7285   66.6533   41.7836 W2         2 LUT     -0.358472
    180 H403       77.8056   67.1068   42.1896 R7         2 LUT      0.097720
    181 H402       79.3812   66.4064   42.5814 R7         2 LUT      0.097720
    182 H401       79.1359   67.5074   41.2540 R7         2 LUT      0.097720
    183 H393       83.6661   67.9960   38.4889 R4         2 LUT      0.082505
    184 H392       83.3992   67.1057   39.9870 R4         2 LUT      0.082505
    185 H391       84.7771   66.7503   38.8619 R4         2 LUT      0.082505
    186 H383       83.0696   66.3163   33.9489 R1         2 LUT      0.104030
    187 H382       83.9894   67.7657   33.8186 R1         2 LUT      0.104030
    188 H381       83.7326   66.8372   32.3721 R1         2 LUT      0.104030
    189 H373       85.9187   64.0983   37.5389 T4         2 LUT      0.089537
    190 H372       85.9878   62.7677   36.3599 T4         2 LUT      0.089537
    191 H371       87.4503   63.4883   37.0557 T4         2 LUT      0.089537
    192 H363       87.4697   66.5933   35.1141 T4         2 LUT      0.089537
    193 H362       86.9873   66.4982   36.7934 T4         2 LUT      0.089537
    194 H361       88.5073   65.6183   36.2303 T4         2 LUT      0.089537
    195 H222       88.0599   63.5300   34.6915 U2         2 LUT      0.127376
    196 H221       86.4902   63.1133   34.0818 U2         2 LUT      0.127376
    197 H203       72.7187   61.7391   41.5231 R7         2 LUT      0.087068
    198 H202       71.1662   62.5074   41.5667 R7         2 LUT      0.087068
    199 H201       72.3447   63.1239   40.4226 R7         2 LUT      0.087068
    200 H193       67.7313   61.2123   45.1634 R4         2 LUT      0.089716
    201 H192       69.4014   60.7751   44.8758 R4         2 LUT      0.089716
    202 H191       68.5938   60.2547   46.3011 R4         2 LUT      0.089716
    203 H183       66.1524   65.2254   47.3165 R1         2 LUT      0.094572
    204 H182       65.3647   63.6219   46.7434 R1         2 LUT      0.094572
    205 H181       64.5049   64.9894   47.4801 R1         2 LUT      0.094572
    206 H173       68.3861   61.0777   50.4355 T4         2 LUT      0.093752
    207 H172       69.3425   62.4921   50.9384 T4         2 LUT      0.093752
    208 H171       68.2026   61.5138   51.9714 T4         2 LUT      0.093752
    209 H163       64.9821   62.1315   51.2664 T4         2 LUT      0.093752
    210 H162       65.9121   60.7413   51.1128 T4         2 LUT      0.093752
    211 H161       65.9926   61.6991   52.5741 T4         2 LUT      0.093752
    212 HO3        65.2243   66.4831   52.2141 Q1         2 LUT      0.300121
    213 H8         68.1755   64.0603   47.0005 U7         2 LUT      0.080784
    214 H7         67.7917   61.3159   48.4051 U6         2 LUT      0.042190
    215 H42        64.1361   64.0224   50.1156 U5         2 LUT      0.145166
    216 H41        64.7537   65.6237   49.7836 U5         2 LUT      0.145166
    217 H35        76.2099   65.3460   42.6643 T3         2 LUT      0.077919
    218 H34        77.2238   64.1270   39.9290 T2         2 LUT      0.073626
    219 H32        79.2940   64.5535   39.1322 T1         2 LUT      0.092510
    220 H31        81.0464   66.7744   40.3192 U9         2 LUT      0.070048
    221 H30        81.1576   64.9958   37.8155 U8         2 LUT      0.085442
    222 H3         65.1068   64.3310   52.3300 U3         2 LUT     -0.031596
    223 H28        83.0371   64.4561   36.8083 U7         2 LUT      0.084728
    224 H27        84.7544   66.9305   36.4070 U6         2 LUT      0.087291
    225 H26        84.5257   64.2381   35.0015 Q6         2 LUT      0.075325
    226 H24        85.9723   66.1223   31.7999 Q5         2 LUT      0.094482
    227 H23        88.1190   65.4038   33.2756 U3         2 LUT     -0.024869
    228 H22        67.2702   63.8265   52.5935 U2         2 LUT      0.127376
    229 H21        67.7667   64.6301   51.0481 U2         2 LUT      0.127376
    230 H15        74.6945   63.6753   40.6044 T3         2 LUT      0.093200
    231 H14        74.2342   64.8356   43.3186 T2         2 LUT      0.068865
    232 H12        72.2533   64.3579   44.5551 T1         2 LUT      0.095507
    233 H11        70.2183   62.3460   43.4803 U9         2 LUT      0.068930
    234 H10        70.3631   64.1237   46.0241 U8         2 LUT      0.083911
    235 H1         88.0647   64.1168   31.3779 Q1         2 LUT      0.297311
@<TRIPOS>BOND
    1     6     1 1
    2     7     2 1
    3     8     3 1
    4     9     4 1
    5    11     4 1
    6    12     6 1
    7    13     9 1
    8    16     9 1
    9    25     5 1
   10    25    16 1
   11    26    10 1
   12    26    17 1
   13    27    18 1
   14    28    14 1
   15    28    19 1
   16    29    12 1
   17    30    13 1
   18    31    24 1
   19    32     1 1
   20    32    25 1
   21    33    21 1
   22    33    26 1
   23    34    22 1
   24    34    27 1
   25    35    23 1
   26    35    28 1
   27    36    12 1
   28    36    24 1
   29    37    13 1
   30    37    15 1
   31    38    31 1
   32    39    20 1
   33    39    32 1
   34    40     2 1
   35    40    33 1
   36    41     3 1
   37    41    34 1
   38    42     4 1
   39    42    35 1
   40    43    38 1
   41    44     5 1
   42    44    17 1
   43    44    39 1
   44    45    10 1
   45    45    18 1
   46    45    40 1
   47    46    19 1
   48    46    41 1
   49    47    14 1
   50    47    16 1
   51    47    42 1
   52    48    38 1
   53    49    48 1
   54    50    49 1
   55    51    50 1
   56    52    51 1
   57    53    51 1
   58    54    53 1
   59    55    54 1
   60    56    55 1
   61    57    56 1
   62    58    56 1
   63    59    58 1
   64    60    59 1
   65    61    60 1
   66    62    61 1
   67    63    61 1
   68    64    27 1
   69    64    46 1
   70    65     5 1
   71    65    10 1
   72    65    64 1
   73    65    14 1
   74    66    23 1
   75    67    23 1
   76    68    23 1
   77    69    22 1
   78    70    22 1
   79    71    22 1
   80    72    21 1
   81    73    21 1
   82    74    21 1
   83    75    20 1
   84    76    20 1
   85    77    20 1
   86    78    15 1
   87    79    15 1
   88    80    15 1
   89    81     8 1
   90    82     8 1
   91    83     8 1
   92    84     7 1
   93    85     7 1
   94    86     6 1
   95    87     6 1
   96    88     3 1
   97    89     3 1
   98    90     1 1
   99    91     1 1
  100    92    63 1
  101    93    63 1
  102    94    63 1
  103    95    62 1
  104    96    62 1
  105    97    62 1
  106    98    60 1
  107    99    60 1
  108   100    59 1
  109   101    59 1
  110   102    58 1
  111   103    58 1
  112   104    57 1
  113   105    57 1
  114   106    57 1
  115   107    55 1
  116   108    55 1
  117   109    54 1
  118   110    54 1
  119   111    53 1
  120   112    53 1
  121   113    19 1
  122   114    18 1
  123   115    17 1
  124   116     9 1
  125   117     2 1
  126   118    52 1
  127   119    52 1
  128   120    52 1
  129   121    51 1
  130   122    50 1
  131   123    50 1
  132   124    49 1
  133   125    49 1
  134   126    48 1
  135   127    48 1
  136   128    43 1
  137   129    43 1
  138   130    43 1
  139   131    39 1
  140   132    32 1
  141   133    31 1
  142   134    61 1
  143   135    56 1
  144   136    24 1
  145   137    24 1
  146   139   138 1
  147   140   139 1
  148   141   140 1
  149   142   140 1
  150   143   142 1
  151   144   138 1
  152   144   143 1
  153   145   144 1
  154   146   145 1
  155   147   146 1
  156   148   147 1
  157   149   148 1
  158   150   149 1
  159   151   150 1
  160   152   151 1
  161   153   152 1
  162   154   138 1
  163   155   138 1
  164   156   143 1
  165   157   147 1
  166   158   151 1
  167   160   159 1
  168   161   160 1
  169   162   161 1
  170   163   161 1
  171   164   163 1
  172   165   159 1
  173   165   164 1
  174   166   165 1
  175   167   166 1
  176   168   167 1
  177   169   168 1
  178   170   169 1
  179   171   170 1
  180   172   171 1
  181   173   172 1
  182   174   153 1
  183   174   173 1
  184   175   159 1
  185   176   159 1
  186   177   164 1
  187   178   168 1
  188   179   172 1
  189   180   179 1
  190   181   179 1
  191   182   179 1
  192   183   178 1
  193   184   178 1
  194   185   178 1
  195   186   177 1
  196   187   177 1
  197   188   177 1
  198   189   176 1
  199   190   176 1
  200   191   176 1
  201   192   175 1
  202   193   175 1
  203   194   175 1
  204   195   160 1
  205   196   160 1
  206   197   158 1
  207   198   158 1
  208   199   158 1
  209   200   157 1
  210   201   157 1
  211   202   157 1
  212   203   156 1
  213   204   156 1
  214   205   156 1
  215   206   155 1
  216   207   155 1
  217   208   155 1
  218   209   154 1
  219   210   154 1
  220   211   154 1
  221   212   141 1
  222   213   146 1
  223   214   145 1
  224   215   142 1
  225   216   142 1
  226   217   174 1
  227   218   173 1
  228   219   171 1
  229   220   170 1
  230   221   169 1
  231   222   140 1
  232   223   167 1
  233   224   166 1
  234   225   165 1
  235   226   163 1
  236   227   161 1
  237   228   139 1
  238   229   139 1
  239   230   153 1
  240   231   152 1
  241   232   150 1
  242   233   149 1
  243   234   148 1
  244   235   162 1
  245   65    153 1
  246   65    174 1
@<TRIPOS>SUBSTRUCTURE
      1 CLA               1 ****               0 ****  **** 
      2 LUT             138 ****               0 ****  **** 
