@<TRIPOS>MOLECULE
Cpptraj generated mol2 file.
  235   246     2     0     0
SMALL
USER_CHARGES


@<TRIPOS>ATOM
      1 CAA        80.1813   59.4432   33.8550 a2         1 CLA     -0.055900
      2 CAB        79.0889   61.4191   43.4517 c8         1 CLA     -0.148500
      3 CAC        72.0621   58.1369   41.2889 a2         1 CLA     -0.012600
      4 CAD        75.7110   56.9670   34.0622 ck         1 CLA      0.398800
      5 NA         78.7536   59.1633   37.1060 ns         1 CLA     -0.225500
      6 CBA        81.5031   59.2629   33.0444 a2         1 CLA     -0.135000
      7 CBB        80.1304   61.4065   44.3436 c0         1 CLA     -0.395200
      8 CBC        72.2851   56.6613   41.5397 a3         1 CLA     -0.037700
      9 CBD        77.1950   57.4253   34.0425 a1         1 CLA     -0.053900
     10 NB         78.3460   60.1326   39.9681 nm         1 CLA     -0.295700
     11 OBD        75.1387   56.5777   33.0229 o2         1 CLA     -0.494600
     12 CGA        81.8803   57.8396   32.6129 c4         1 CLA      0.827000
     13 CGD        78.0664   56.2452   33.6171 c4         1 CLA      0.655300
     14 ND         75.8303   58.4463   37.2191 nm         1 CLA     -0.291600
     15 CED        78.4235   53.8754   33.6713 a3         1 CLA      0.005400
     16 CHA        77.4459   58.0874   35.4313 cs         1 CLA     -0.123800
     17 CHB        80.4457   60.0433   38.7575 aa         1 CLA     -0.291900
     18 CHC        76.7525   60.1202   41.8211 aa         1 CLA     -0.090400
     19 CHD        73.6695   58.3517   38.5103 aa         1 CLA     -0.052000
     20 CMA        82.2551   58.4732   36.7448 a3         1 CLA     -0.230700
     21 CMB        81.5202   61.4115   41.3182 a3         1 CLA     -0.180800
     22 CMC        74.1487   59.1903   43.5889 a3         1 CLA     -0.134000
     23 CMD        72.6434   56.9077   35.8654 a3         1 CLA     -0.141100
     24 C1         82.9185   55.7889   33.3236 a2         1 CLA      0.023000
     25 C1A        78.7051   58.6160   35.8616 ac         1 CLA     -0.015100
     26 C1B        79.6170   60.4065   39.8817 cr         1 CLA      0.054700
     27 C1C        75.5773   59.6203   41.2603 cn         1 CLA     -0.005600
     28 C1D        74.4928   58.1649   37.3045 ap         1 CLA     -0.047300
     29 O1A        81.5550   57.3653   31.5517 o2         1 CLA     -0.610800
     30 O1D        78.9949   56.4179   32.8219 o2         1 CLA     -0.558200
     31 C2         83.4447   55.0292   34.4885 c8         1 CLA     -0.325100
     32 C2A        80.0680   58.6476   35.1784 a1         1 CLA      0.098600
     33 C2B        80.1355   60.9471   41.0990 cb         1 CLA      0.088500
     34 C2C        74.3867   59.2337   42.0589 cb         1 CLA      0.053700
     35 C2D        74.0123   57.5046   36.0790 cb         1 CLA      0.058900
     36 O2A        82.6382   57.1903   33.5621 o1         1 CLA     -0.437200
     37 O2D        77.6659   55.0828   34.2135 o1         1 CLA     -0.357600
     38 C3         84.5001   54.1916   34.3953 c5         1 CLA      0.031200
     39 C3A        80.9774   59.2984   36.3195 a1         1 CLA      0.166800
     40 C3B        79.1201   60.9231   42.0320 cb         1 CLA      0.035000
     41 C3C        73.4885   58.7384   41.1029 cb         1 CLA     -0.089900
     42 C3D        75.1824   57.4260   35.3052 cb         1 CLA     -0.035900
     43 C4         84.1389   52.7080   34.2526 a3         1 CLA     -0.053300
     44 C4A        80.0682   59.4853   37.5478 ac         1 CLA      0.001800
     45 C4B        77.9887   60.3052   41.3055 cn         1 CLA     -0.020900
     46 C4C        74.1654   58.8347   39.7552 cr         1 CLA     -0.044400
     47 C4D        76.2238   58.0399   36.0587 c6         1 CLA     -0.046000
     48 C5         85.9787   54.5163   34.4491 a2         1 CLA     -0.070400
     49 C6         86.3879   55.9352   35.0506 a2         1 CLA      0.043900
     50 C7         86.1678   55.8819   36.5796 a2         1 CLA     -0.150000
     51 C8         85.8447   57.2932   37.2933 a1         1 CLA      0.064200
     52 C9         86.5746   58.4573   36.7245 a3         1 CLA     -0.259300
     53 C10        85.9643   57.2360   38.8554 a2         1 CLA     -0.071900
     54 C11        85.3289   58.4263   39.6347 a2         1 CLA      0.014500
     55 C12        85.3911   58.1668   41.1202 a2         1 CLA     -0.112100
     56 C13        85.0977   59.3961   42.1185 a1         1 CLA      0.089200
     57 C14        86.1899   60.4978   42.0810 a3         1 CLA     -0.239100
     58 C15        84.9108   58.9002   43.6293 a2         1 CLA     -0.102200
     59 C16        83.9244   57.7713   43.9390 a2         1 CLA      0.023900
     60 C17        83.9192   57.5352   45.4339 a2         1 CLA     -0.105700
     61 C18        85.2377   57.1518   46.1932 a1         1 CLA      0.206800
     62 C19        84.9532   56.5841   47.5844 a3         1 CLA     -0.280100
     63 C20        86.1664   56.1646   45.3688 a3         1 CLA     -0.280100
     64 NC         75.4369   59.3072   39.9484 nx         1 CLA     -0.309200
     65 MG         76.9992   59.4625   38.4771 mg         1 CLA      0.895000
     66 HMD3       72.4692   56.3653   36.7859 dc         1 CLA      0.064300
     67 HMD2       71.9171   57.7234   35.6836 dc         1 CLA      0.064300
     68 HMD1       72.7503   56.2287   35.0010 dc         1 CLA      0.064300
     69 HMC3       73.2205   59.7280   43.8759 dc         1 CLA      0.052100
     70 HMC2       74.1312   58.1477   43.9522 dc         1 CLA      0.052100
     71 HMC1       75.0166   59.6972   44.0667 dc         1 CLA      0.052100
     72 HMB3       81.5335   62.4208   41.7193 dc         1 CLA      0.063600
     73 HMB2       81.9849   60.8396   42.1475 dc         1 CLA      0.063600
     74 HMB1       82.1697   61.4105   40.4380 dc         1 CLA      0.063600
     75 HMA3       82.9961   58.3981   35.9860 dc         1 CLA      0.058300
     76 HMA2       82.7893   58.9974   37.5459 dc         1 CLA      0.058300
     77 HMA1       81.8541   57.5023   37.0593 dc         1 CLA      0.058300
     78 HED3       79.5259   53.9488   33.7352 dc         1 CLA      0.079300
     79 HED2       78.1378   52.9790   34.2601 dc         1 CLA      0.079300
     80 HED1       78.1576   53.7566   32.5966 dc         1 CLA      0.079300
     81 HBC3       72.7891   56.3593   40.6162 dc         1 CLA      0.016300
     82 HBC2       72.8923   56.5405   42.4408 dc         1 CLA      0.016300
     83 HBC1       71.2797   56.2148   41.6259 dc         1 CLA      0.016300
     84 HBB2       80.0366   61.9050   45.3330 da         1 CLA      0.183000
     85 HBB1       81.0558   60.8807   44.0928 da         1 CLA      0.183000
     86 HBA2       81.3204   59.7590   32.1033 dc         1 CLA      0.029400
     87 HBA1       82.3523   59.6659   33.5300 dc         1 CLA      0.029400
     88 HAC2       71.5658   58.5700   42.1523 dc         1 CLA      0.029300
     89 HAC1       71.5104   58.2809   40.3761 dc         1 CLA      0.029300
     90 HAA2       79.2991   59.1787   33.1981 dc         1 CLA      0.028700
     91 HAA1       80.2031   60.4743   34.1643 dc         1 CLA      0.028700
     92 H203       87.0272   55.8616   45.9687 dc         1 CLA      0.065600
     93 H202       85.6445   55.2690   45.1117 dc         1 CLA      0.065600
     94 H201       86.4754   56.5448   44.3713 dc         1 CLA      0.065600
     95 H193       85.7902   56.3963   48.2233 dc         1 CLA      0.065600
     96 H192       84.3667   57.3598   48.1522 dc         1 CLA      0.065600
     97 H191       84.3811   55.6304   47.5133 dc         1 CLA      0.065600
     98 H172       83.3978   58.3597   45.9322 dc         1 CLA      0.027600
     99 H171       83.2989   56.6723   45.5214 dc         1 CLA      0.027600
    100 H162       82.9848   58.2341   43.4568 dc         1 CLA      0.002900
    101 H161       84.2472   56.8550   43.4596 dc         1 CLA      0.002900
    102 H152       85.9140   58.7102   44.0390 dc         1 CLA      0.029100
    103 H151       84.7078   59.7575   44.3281 dc         1 CLA      0.029100
    104 H143       87.1726   60.0707   42.4134 dc         1 CLA      0.063600
    105 H142       86.1753   60.9796   41.0818 dc         1 CLA      0.063600
    106 H141       85.7507   61.3082   42.7641 dc         1 CLA      0.063600
    107 H122       84.7033   57.3989   41.3495 dc         1 CLA      0.032500
    108 H121       86.3522   57.7448   41.3319 dc         1 CLA      0.032500
    109 H112       86.0366   59.3232   39.5223 dc         1 CLA      0.006600
    110 H111       84.3292   58.6428   39.2511 dc         1 CLA      0.006600
    111 H102       85.5376   56.3585   39.3400 dc         1 CLA      0.024100
    112 H101       87.0300   57.3726   39.2113 dc         1 CLA      0.024100
    113 HHD        72.6463   57.9793   38.5399 da         1 CLA      0.174300
    114 HHC        76.7601   60.2973   42.8905 da         1 CLA      0.136800
    115 HHB        81.5341   60.1677   38.8882 da         1 CLA      0.138300
    116 HBD        77.0988   58.1448   33.1838 dc         1 CLA      0.107700
    117 HAB        78.2359   61.9970   43.8181 da         1 CLA      0.155200
    118 H93        86.2689   59.3447   37.1749 dc         1 CLA      0.069500
    119 H92        87.6454   58.3288   36.8439 dc         1 CLA      0.069500
    120 H91        86.5017   58.6403   35.6473 dc         1 CLA      0.069500
    121 H8         84.7972   57.4560   37.0795 dc         1 CLA      0.029300
    122 H72        85.2030   55.2471   36.7446 dc         1 CLA      0.044400
    123 H71        87.0391   55.5707   37.1086 dc         1 CLA      0.044400
    124 H62        87.4262   56.0869   34.8464 dc         1 CLA      0.015600
    125 H61        85.7646   56.7337   34.4962 dc         1 CLA      0.015600
    126 H52        86.6521   53.6795   34.7672 dc         1 CLA      0.033200
    127 H51        86.2856   54.4992   33.3812 dc         1 CLA      0.033200
    128 H43        84.3691   52.3590   33.2851 dc         1 CLA      0.037000
    129 H42        84.5557   52.1293   35.0049 dc         1 CLA      0.037000
    130 H41        83.0857   52.6087   34.4193 dc         1 CLA      0.037000
    131 H3A        81.4917   60.1709   36.0510 dc         1 CLA      0.041100
    132 H2A        80.3075   57.6369   34.9829 dc         1 CLA      0.083100
    133 H2         83.1971   55.3811   35.4459 da         1 CLA      0.180900
    134 H18        85.8057   58.0865   46.3841 dc         1 CLA     -0.003900
    135 H13        84.2050   59.9082   41.6292 dc         1 CLA      0.019700
    136 H12        81.9652   55.2985   33.0903 dc         1 CLA      0.120400
    137 H11        83.6328   55.6685   32.4623 dc         1 CLA      0.120400
    138 C1         69.0454   61.4793   49.0838 Z1         2 LUT      0.509236
    139 C2         68.7259   62.2119   50.3776 Z2         2 LUT     -0.434695
    140 C3         67.3735   62.8172   50.4678 Z3         2 LUT      0.437453
    141 O3         67.1078   63.3856   51.7748 S1         2 LUT     -0.547129
    142 C4         67.2160   63.7965   49.2908 Z4         2 LUT     -0.468603
    143 C5         67.8683   63.4663   48.0082 Z5         2 LUT      0.279246
    144 C6         68.5930   62.3287   47.8921 Z6         2 LUT     -0.305473
    145 C7         69.1091   61.9673   46.5106 Z7         2 LUT      0.069402
    146 C8         69.9076   62.7055   45.7065 Z8         2 LUT     -0.191631
    147 C9         70.7855   62.3342   44.6322 Z9         2 LUT      0.196698
    148 C10        71.8872   63.1330   44.3896 Y1         2 LUT     -0.208611
    149 C11        72.7783   63.1490   43.2522 Y2         2 LUT      0.030784
    150 C12        74.0115   63.6657   43.2418 Y3         2 LUT     -0.220316
    151 C13        74.9694   63.6758   42.1353 Y4         2 LUT      0.215937
    152 C14        76.2341   64.1763   42.2397 Y5         2 LUT     -0.185793
    153 C15        77.2048   64.2581   41.1943 Y6         2 LUT     -0.057835
    154 C16        68.3874   60.0730   49.0887 Y7         2 LUT     -0.405615
    155 C17        70.5147   61.1616   49.0233 Y7         2 LUT     -0.405615
    156 C18        67.3550   64.4116   46.9729 Y9         2 LUT     -0.369639
    157 C19        70.5002   61.0477   43.9128 W1         2 LUT     -0.333362
    158 C20        74.4561   63.2358   40.8309 W2         2 LUT     -0.323439
    159 C21        88.3659   66.0072   34.6113 Z1         2 LUT      0.406104
    160 C22        89.0827   65.5625   33.3147 Z2         2 LUT     -0.404965
    161 C23        89.1286   66.6158   32.1326 Z3         2 LUT      0.391255
    162 O23        89.8492   66.2099   30.9901 S1         2 LUT     -0.528210
    163 C24        87.9045   67.4146   32.0387 W6         2 LUT     -0.258361
    164 C25        86.9137   67.4814   32.9582 Z5         2 LUT      0.133546
    165 C26        86.8833   66.5915   34.2567 W8         2 LUT     -0.147008
    166 C27        86.2075   67.2271   35.4384 Z7         2 LUT      0.023843
    167 C28        85.0382   66.8077   36.0113 Z8         2 LUT     -0.216987
    168 C29        84.3436   67.2760   37.2683 Z9         2 LUT      0.206524
    169 C30        83.2669   66.5196   37.6969 Y1         2 LUT     -0.215556
    170 C31        82.5068   66.6309   38.8857 Y2         2 LUT      0.025142
    171 C32        81.4388   65.8044   39.1977 Y3         2 LUT     -0.212209
    172 C33        80.5307   65.8529   40.3364 Y4         2 LUT      0.240937
    173 C34        79.4617   65.0532   40.4149 Y5         2 LUT     -0.218862
    174 C35        78.4240   64.9230   41.4549 Y6         2 LUT     -0.023547
    175 C36        89.3637   67.0838   35.2413 Y7         2 LUT     -0.393485
    176 C37        88.1870   64.8262   35.5203 Y7         2 LUT     -0.393485
    177 C38        85.8337   68.4977   32.6654 Y9         2 LUT     -0.387526
    178 C39        85.0329   68.4004   38.0057 W1         2 LUT     -0.322618
    179 C40        80.8731   66.9771   41.3192 W2         2 LUT     -0.358472
    180 H403       80.0195   67.2554   41.9231 R7         2 LUT      0.097720
    181 H402       81.7796   66.8446   41.8976 R7         2 LUT      0.097720
    182 H401       80.9830   67.9332   40.7355 R7         2 LUT      0.097720
    183 H393       85.0915   69.3498   37.4281 R4         2 LUT      0.082505
    184 H392       84.5449   68.6888   38.9165 R4         2 LUT      0.082505
    185 H391       86.0688   68.1025   38.3098 R4         2 LUT      0.082505
    186 H383       85.1616   68.4982   33.4721 R1         2 LUT      0.104030
    187 H382       86.3243   69.4781   32.4567 R1         2 LUT      0.104030
    188 H381       85.2880   68.0824   31.8177 R1         2 LUT      0.104030
    189 H373       89.1818   64.5321   35.9386 T4         2 LUT      0.089537
    190 H372       87.6646   65.1380   36.4099 T4         2 LUT      0.089537
    191 H371       87.7408   64.0277   35.0009 T4         2 LUT      0.089537
    192 H363       88.9775   67.4651   36.1654 T4         2 LUT      0.089537
    193 H362       90.2314   66.6072   35.5767 T4         2 LUT      0.089537
    194 H361       89.5683   68.0069   34.6276 T4         2 LUT      0.089537
    195 H222       90.0983   65.2235   33.4926 U2         2 LUT      0.127376
    196 H221       88.3919   64.8987   32.8552 U2         2 LUT      0.127376
    197 H203       74.3975   62.1538   40.6955 R7         2 LUT      0.087068
    198 H202       73.4861   63.6695   40.5992 R7         2 LUT      0.087068
    199 H201       75.0408   63.5559   39.9541 R7         2 LUT      0.087068
    200 H193       70.9483   61.1092   42.9190 R4         2 LUT      0.089716
    201 H192       70.9849   60.2423   44.5026 R4         2 LUT      0.089716
    202 H191       69.4400   60.7990   43.7699 R4         2 LUT      0.089716
    203 H183       67.3347   63.8873   46.0509 R1         2 LUT      0.094572
    204 H182       66.2874   64.7302   47.1921 R1         2 LUT      0.094572
    205 H181       68.0565   65.3081   46.9923 R1         2 LUT      0.094572
    206 H173       70.8763   60.4760   49.8340 T4         2 LUT      0.093752
    207 H172       70.9006   60.6539   48.0520 T4         2 LUT      0.093752
    208 H171       71.0882   62.1554   49.0892 T4         2 LUT      0.093752
    209 H163       67.3591   60.2193   49.0073 T4         2 LUT      0.093752
    210 H162       68.7068   59.4543   48.3253 T4         2 LUT      0.093752
    211 H161       68.5933   59.5081   49.9842 T4         2 LUT      0.093752
    212 HO3        67.0634   62.7057   52.4819 Q1         2 LUT      0.300121
    213 H8         70.0511   63.6299   46.1343 U7         2 LUT      0.080784
    214 H7         69.1924   60.9264   46.2203 U6         2 LUT      0.042190
    215 H42        66.1023   63.9680   49.2253 U5         2 LUT      0.145166
    216 H41        67.6020   64.7973   49.6626 U5         2 LUT      0.145166
    217 H35        78.4830   65.4558   42.4385 T3         2 LUT      0.077919
    218 H34        79.2594   64.5710   39.4572 T2         2 LUT      0.073626
    219 H32        81.2036   64.9510   38.6119 T1         2 LUT      0.092510
    220 H31        82.7816   67.3708   39.5817 U9         2 LUT      0.070048
    221 H30        82.9788   65.6952   37.0868 U8         2 LUT      0.085442
    222 H3         66.6645   61.9281   50.4788 U3         2 LUT     -0.031596
    223 H28        84.5192   65.9485   35.4666 U7         2 LUT      0.084728
    224 H27        86.5865   68.1461   35.8799 U6         2 LUT      0.087291
    225 H26        86.3301   65.7052   33.9897 Q6         2 LUT      0.075325
    226 H24        87.8770   68.0819   31.1708 Q5         2 LUT      0.094482
    227 H23        89.7328   67.4373   32.5647 U3         2 LUT     -0.024869
    228 H22        68.9142   61.5626   51.2499 U2         2 LUT      0.127376
    229 H21        69.4587   63.0656   50.4348 U2         2 LUT      0.127376
    230 H15        77.0492   63.9463   40.0914 T3         2 LUT      0.093200
    231 H14        76.4762   64.6044   43.2592 T2         2 LUT      0.068865
    232 H12        74.3573   64.1050   44.1586 T1         2 LUT      0.095507
    233 H11        72.4831   62.6558   42.3333 U9         2 LUT      0.068930
    234 H10        71.9114   64.0412   44.9537 U8         2 LUT      0.083911
    235 H1         89.1931   65.7986   30.3711 Q1         2 LUT      0.297311
@<TRIPOS>BOND
    1     6     1 1
    2     7     2 1
    3     8     3 1
    4     9     4 1
    5    11     4 1
    6    12     6 1
    7    13     9 1
    8    16     9 1
    9    25     5 1
   10    25    16 1
   11    26    10 1
   12    26    17 1
   13    27    18 1
   14    28    14 1
   15    28    19 1
   16    29    12 1
   17    30    13 1
   18    31    24 1
   19    32     1 1
   20    32    25 1
   21    33    21 1
   22    33    26 1
   23    34    22 1
   24    34    27 1
   25    35    23 1
   26    35    28 1
   27    36    12 1
   28    36    24 1
   29    37    13 1
   30    37    15 1
   31    38    31 1
   32    39    20 1
   33    39    32 1
   34    40     2 1
   35    40    33 1
   36    41     3 1
   37    41    34 1
   38    42     4 1
   39    42    35 1
   40    43    38 1
   41    44     5 1
   42    44    17 1
   43    44    39 1
   44    45    10 1
   45    45    18 1
   46    45    40 1
   47    46    19 1
   48    46    41 1
   49    47    14 1
   50    47    16 1
   51    47    42 1
   52    48    38 1
   53    49    48 1
   54    50    49 1
   55    51    50 1
   56    52    51 1
   57    53    51 1
   58    54    53 1
   59    55    54 1
   60    56    55 1
   61    57    56 1
   62    58    56 1
   63    59    58 1
   64    60    59 1
   65    61    60 1
   66    62    61 1
   67    63    61 1
   68    64    27 1
   69    64    46 1
   70    65     5 1
   71    65    10 1
   72    65    64 1
   73    65    14 1
   74    66    23 1
   75    67    23 1
   76    68    23 1
   77    69    22 1
   78    70    22 1
   79    71    22 1
   80    72    21 1
   81    73    21 1
   82    74    21 1
   83    75    20 1
   84    76    20 1
   85    77    20 1
   86    78    15 1
   87    79    15 1
   88    80    15 1
   89    81     8 1
   90    82     8 1
   91    83     8 1
   92    84     7 1
   93    85     7 1
   94    86     6 1
   95    87     6 1
   96    88     3 1
   97    89     3 1
   98    90     1 1
   99    91     1 1
  100    92    63 1
  101    93    63 1
  102    94    63 1
  103    95    62 1
  104    96    62 1
  105    97    62 1
  106    98    60 1
  107    99    60 1
  108   100    59 1
  109   101    59 1
  110   102    58 1
  111   103    58 1
  112   104    57 1
  113   105    57 1
  114   106    57 1
  115   107    55 1
  116   108    55 1
  117   109    54 1
  118   110    54 1
  119   111    53 1
  120   112    53 1
  121   113    19 1
  122   114    18 1
  123   115    17 1
  124   116     9 1
  125   117     2 1
  126   118    52 1
  127   119    52 1
  128   120    52 1
  129   121    51 1
  130   122    50 1
  131   123    50 1
  132   124    49 1
  133   125    49 1
  134   126    48 1
  135   127    48 1
  136   128    43 1
  137   129    43 1
  138   130    43 1
  139   131    39 1
  140   132    32 1
  141   133    31 1
  142   134    61 1
  143   135    56 1
  144   136    24 1
  145   137    24 1
  146   139   138 1
  147   140   139 1
  148   141   140 1
  149   142   140 1
  150   143   142 1
  151   144   138 1
  152   144   143 1
  153   145   144 1
  154   146   145 1
  155   147   146 1
  156   148   147 1
  157   149   148 1
  158   150   149 1
  159   151   150 1
  160   152   151 1
  161   153   152 1
  162   154   138 1
  163   155   138 1
  164   156   143 1
  165   157   147 1
  166   158   151 1
  167   160   159 1
  168   161   160 1
  169   162   161 1
  170   163   161 1
  171   164   163 1
  172   165   159 1
  173   165   164 1
  174   166   165 1
  175   167   166 1
  176   168   167 1
  177   169   168 1
  178   170   169 1
  179   171   170 1
  180   172   171 1
  181   173   172 1
  182   174   153 1
  183   174   173 1
  184   175   159 1
  185   176   159 1
  186   177   164 1
  187   178   168 1
  188   179   172 1
  189   180   179 1
  190   181   179 1
  191   182   179 1
  192   183   178 1
  193   184   178 1
  194   185   178 1
  195   186   177 1
  196   187   177 1
  197   188   177 1
  198   189   176 1
  199   190   176 1
  200   191   176 1
  201   192   175 1
  202   193   175 1
  203   194   175 1
  204   195   160 1
  205   196   160 1
  206   197   158 1
  207   198   158 1
  208   199   158 1
  209   200   157 1
  210   201   157 1
  211   202   157 1
  212   203   156 1
  213   204   156 1
  214   205   156 1
  215   206   155 1
  216   207   155 1
  217   208   155 1
  218   209   154 1
  219   210   154 1
  220   211   154 1
  221   212   141 1
  222   213   146 1
  223   214   145 1
  224   215   142 1
  225   216   142 1
  226   217   174 1
  227   218   173 1
  228   219   171 1
  229   220   170 1
  230   221   169 1
  231   222   140 1
  232   223   167 1
  233   224   166 1
  234   225   165 1
  235   226   163 1
  236   227   161 1
  237   228   139 1
  238   229   139 1
  239   230   153 1
  240   231   152 1
  241   232   150 1
  242   233   149 1
  243   234   148 1
  244   235   162 1
  245   65    153 1
  246   65    174 1
@<TRIPOS>SUBSTRUCTURE
      1 CLA               1 ****               0 ****  **** 
      2 LUT             138 ****               0 ****  **** 
