@<TRIPOS>MOLECULE
Cpptraj generated mol2 file.
  235   246     2     0     0
SMALL
USER_CHARGES


@<TRIPOS>ATOM
      1 CAA        79.4218   59.0427   33.0958 a2         1 CLA     -0.055900
      2 CAB        78.7833   62.4650   42.2448 c8         1 CLA     -0.148500
      3 CAC        72.3651   57.6762   41.5024 a2         1 CLA     -0.012600
      4 CAD        75.4639   55.7284   34.0884 ck         1 CLA      0.398800
      5 NA         78.2994   59.0879   36.5359 ns         1 CLA     -0.225500
      6 CBA        80.6939   58.9037   32.2778 a2         1 CLA     -0.135000
      7 CBB        79.8815   62.7095   42.9517 c0         1 CLA     -0.395200
      8 CBC        72.6265   56.1900   41.7059 a3         1 CLA     -0.037700
      9 CBD        76.8986   56.4570   33.8310 a1         1 CLA     -0.053900
     10 NB         77.9427   60.5120   39.1001 nm         1 CLA     -0.295700
     11 OBD        74.9251   54.9787   33.2888 o2         1 CLA     -0.494600
     12 CGA        81.1484   57.3837   32.0069 c4         1 CLA      0.827000
     13 CGD        77.8639   55.4169   33.4362 c4         1 CLA      0.655300
     14 ND         75.6886   57.7718   37.0158 nm         1 CLA     -0.291600
     15 CED        78.3365   53.0213   33.8133 a3         1 CLA      0.005400
     16 CHA        77.1900   57.4460   35.0059 cs         1 CLA     -0.123800
     17 CHB        79.8123   60.6043   37.6204 aa         1 CLA     -0.291900
     18 CHC        76.5498   60.4964   41.0909 aa         1 CLA     -0.090400
     19 CHD        73.8180   57.3078   38.6552 aa         1 CLA     -0.052000
     20 CMA        81.7190   58.7101   35.9430 a3         1 CLA     -0.230700
     21 CMB        80.8542   62.6653   39.5636 a3         1 CLA     -0.180800
     22 CMC        74.3941   59.6374   43.0990 a3         1 CLA     -0.134000
     23 CMD        72.6247   55.5386   36.2535 a3         1 CLA     -0.141100
     24 C1         82.3411   55.5182   33.0081 a2         1 CLA      0.023000
     25 C1A        78.2464   58.3611   35.3777 ac         1 CLA     -0.015100
     26 C1B        79.1371   60.9637   38.7969 cr         1 CLA      0.054700
     27 C1C        75.5398   59.5965   40.7285 cn         1 CLA     -0.005600
     28 C1D        74.4949   57.1639   37.4098 ap         1 CLA     -0.047300
     29 O1A        81.1186   56.7457   30.9293 o2         1 CLA     -0.610800
     30 O1D        78.5945   55.3739   32.4628 o2         1 CLA     -0.558200
     31 C2         82.9848   55.2495   34.3595 c8         1 CLA     -0.325100
     32 C2A        79.5348   58.5801   34.5203 a1         1 CLA      0.098600
     33 C2B        79.6373   61.8552   39.8169 cb         1 CLA      0.088500
     34 C2C        74.4567   59.1912   41.6447 cb         1 CLA      0.053700
     35 C2D        74.0112   56.3303   36.3004 cb         1 CLA      0.058900
     36 O2A        81.8372   56.9003   33.1094 o1         1 CLA     -0.437200
     37 O2D        77.6885   54.3156   34.2217 o1         1 CLA     -0.357600
     38 C3         84.1129   54.5913   34.6872 c5         1 CLA      0.031200
     39 C3A        80.3974   59.4507   35.4252 a1         1 CLA      0.166800
     40 C3B        78.7653   61.8121   40.9023 cb         1 CLA      0.035000
     41 C3C        73.6534   58.3019   40.9781 cb         1 CLA     -0.089900
     42 C3D        75.0557   56.3593   35.3321 cb         1 CLA     -0.035900
     43 C4         84.1217   53.1332   35.0309 a3         1 CLA     -0.053300
     44 C4A        79.4516   59.7379   36.5935 ac         1 CLA      0.001800
     45 C4B        77.6614   60.9914   40.4056 cn         1 CLA     -0.020900
     46 C4C        74.2422   58.2134   39.6502 cr         1 CLA     -0.044400
     47 C4D        76.0146   57.2184   35.8154 c6         1 CLA     -0.046000
     48 C5         85.4273   55.3184   34.4900 a2         1 CLA     -0.070400
     49 C6         85.6290   56.6492   35.2306 a2         1 CLA      0.043900
     50 C7         85.6952   56.2802   36.7659 a2         1 CLA     -0.150000
     51 C8         86.0820   57.4186   37.7567 a1         1 CLA      0.064200
     52 C9         87.5372   57.8295   37.3855 a3         1 CLA     -0.259300
     53 C10        85.9850   56.8470   39.1603 a2         1 CLA     -0.071900
     54 C11        86.3659   57.8465   40.2401 a2         1 CLA      0.014500
     55 C12        85.8044   57.5459   41.6598 a2         1 CLA     -0.112100
     56 C13        86.1444   58.5291   42.8290 a1         1 CLA      0.089200
     57 C14        87.6527   58.8796   42.8420 a3         1 CLA     -0.239100
     58 C15        85.7769   57.8600   44.1366 a2         1 CLA     -0.102200
     59 C16        84.2637   57.5071   44.4384 a2         1 CLA      0.023900
     60 C17        83.3813   58.7556   44.2680 a2         1 CLA     -0.105700
     61 C18        81.7983   58.6769   44.4459 a1         1 CLA      0.206800
     62 C19        81.2201   57.9659   45.7266 a3         1 CLA     -0.280100
     63 C20        81.1558   60.0708   44.3493 a3         1 CLA     -0.280100
     64 NC         75.3680   58.9948   39.5045 nx         1 CLA     -0.309200
     65 MG         76.7577   59.1906   37.9464 mg         1 CLA      0.895000
     66 HMD3       71.7874   56.2982   36.2605 dc         1 CLA      0.064300
     67 HMD2       72.4897   54.8743   35.4110 dc         1 CLA      0.064300
     68 HMD1       72.4638   54.9865   37.1252 dc         1 CLA      0.064300
     69 HMC3       75.2943   59.3343   43.6582 dc         1 CLA      0.052100
     70 HMC2       74.4529   60.7086   43.0838 dc         1 CLA      0.052100
     71 HMC1       73.4859   59.3088   43.6536 dc         1 CLA      0.052100
     72 HMB3       81.0836   63.3884   40.3585 dc         1 CLA      0.063600
     73 HMB2       81.7383   62.0625   39.4353 dc         1 CLA      0.063600
     74 HMB1       80.7765   63.0733   38.6311 dc         1 CLA      0.063600
     75 HMA3       81.6131   57.8557   36.6253 dc         1 CLA      0.058300
     76 HMA2       82.2163   58.2483   35.1544 dc         1 CLA      0.058300
     77 HMA1       82.3451   59.5188   36.2772 dc         1 CLA      0.058300
     78 HED3       79.3356   53.1955   33.3042 dc         1 CLA      0.079300
     79 HED2       78.4649   52.3674   34.6765 dc         1 CLA      0.079300
     80 HED1       77.8037   52.5141   33.0467 dc         1 CLA      0.079300
     81 HBC3       72.9567   55.6727   40.8081 dc         1 CLA      0.016300
     82 HBC2       73.2508   55.9358   42.5877 dc         1 CLA      0.016300
     83 HBC1       71.6024   55.7971   41.8153 dc         1 CLA      0.016300
     84 HBB2       79.8140   63.1872   43.8997 da         1 CLA      0.183000
     85 HBB1       80.9072   62.5120   42.6096 da         1 CLA      0.183000
     86 HBA2       80.5155   59.3630   31.2881 dc         1 CLA      0.029400
     87 HBA1       81.5285   59.3382   32.8107 dc         1 CLA      0.029400
     88 HAC2       71.9558   58.2221   42.2634 dc         1 CLA      0.029300
     89 HAC1       71.6437   57.6589   40.7637 dc         1 CLA      0.029300
     90 HAA2       78.6322   58.3899   32.6385 dc         1 CLA      0.028700
     91 HAA1       79.0178   60.0681   33.0021 dc         1 CLA      0.028700
     92 H203       81.3904   60.5355   43.3770 dc         1 CLA      0.065600
     93 H202       80.0794   59.9559   44.4073 dc         1 CLA      0.065600
     94 H201       81.4361   60.7611   45.1793 dc         1 CLA      0.065600
     95 H193       80.7415   56.9885   45.4404 dc         1 CLA      0.065600
     96 H192       82.0927   57.7867   46.4544 dc         1 CLA      0.065600
     97 H191       80.5710   58.6560   46.2942 dc         1 CLA      0.065600
     98 H172       83.7588   59.4982   44.9940 dc         1 CLA      0.027600
     99 H171       83.5553   59.2150   43.3110 dc         1 CLA      0.027600
    100 H162       83.9982   56.7540   43.6707 dc         1 CLA      0.002900
    101 H161       84.1909   57.1432   45.4870 dc         1 CLA      0.002900
    102 H152       86.3745   56.9221   44.2062 dc         1 CLA      0.029100
    103 H151       86.0433   58.5495   44.9972 dc         1 CLA      0.029100
    104 H143       88.2602   57.9930   42.9315 dc         1 CLA      0.063600
    105 H142       87.9676   59.3882   41.9635 dc         1 CLA      0.063600
    106 H141       87.9156   59.5426   43.6315 dc         1 CLA      0.063600
    107 H122       84.7450   57.3881   41.6197 dc         1 CLA      0.032500
    108 H121       86.2127   56.5904   41.9714 dc         1 CLA      0.032500
    109 H112       87.4133   57.8507   40.4454 dc         1 CLA      0.006600
    110 H111       86.0869   58.8822   39.9904 dc         1 CLA      0.006600
    111 H102       84.9246   56.4645   39.2092 dc         1 CLA      0.024100
    112 H101       86.5424   55.8858   39.3473 dc         1 CLA      0.024100
    113 HHD        72.8553   56.7226   38.8215 da         1 CLA      0.174300
    114 HHC        76.4467   61.0222   42.0394 da         1 CLA      0.136800
    115 HHB        80.8628   60.9697   37.5834 da         1 CLA      0.138300
    116 HBD        76.6441   56.9817   32.9207 dc         1 CLA      0.107700
    117 HAB        77.8566   62.6233   42.7616 da         1 CLA      0.155200
    118 H93        87.8190   58.7321   37.9672 dc         1 CLA      0.069500
    119 H92        88.1946   57.0175   37.5594 dc         1 CLA      0.069500
    120 H91        87.6132   58.0098   36.2764 dc         1 CLA      0.069500
    121 H8         85.3274   58.2783   37.6237 dc         1 CLA      0.029300
    122 H72        84.7131   55.9526   36.8995 dc         1 CLA      0.044400
    123 H71        86.2901   55.3564   36.9607 dc         1 CLA      0.044400
    124 H62        86.5253   57.1076   34.7636 dc         1 CLA      0.015600
    125 H61        84.6789   57.2339   35.0725 dc         1 CLA      0.015600
    126 H52        86.2428   54.5953   34.7005 dc         1 CLA      0.033200
    127 H51        85.3951   55.5727   33.4265 dc         1 CLA      0.033200
    128 H43        83.0818   52.7785   35.1085 dc         1 CLA      0.037000
    129 H42        84.6653   52.5122   34.3861 dc         1 CLA      0.037000
    130 H41        84.4742   52.8548   36.0395 dc         1 CLA      0.037000
    131 H3A        80.7895   60.4153   34.9819 dc         1 CLA      0.041100
    132 H2A        79.9924   57.6357   34.5138 dc         1 CLA      0.083100
    133 H2         82.4909   55.6112   35.3166 da         1 CLA      0.180900
    134 H18        81.3569   58.0624   43.6399 dc         1 CLA     -0.003900
    135 H13        85.5801   59.4655   42.6128 dc         1 CLA      0.019700
    136 H12        81.4748   54.8493   32.8642 dc         1 CLA      0.120400
    137 H11        83.0551   55.4939   32.1904 dc         1 CLA      0.120400
    138 C1         68.7656   61.1640   48.6245 Z1         2 LUT      0.509236
    139 C2         67.3449   61.0360   49.2171 Z2         2 LUT     -0.434695
    140 C3         66.6821   62.4289   49.5006 Z3         2 LUT      0.437453
    141 O3         66.9959   62.8432   50.8637 S1         2 LUT     -0.547129
    142 C4         66.9956   63.5634   48.5521 Z4         2 LUT     -0.468603
    143 C5         67.8650   63.2973   47.4305 Z5         2 LUT      0.279246
    144 C6         68.7234   62.2267   47.4328 Z6         2 LUT     -0.305473
    145 C7         69.3883   61.7320   46.1567 Z7         2 LUT      0.069402
    146 C8         70.2740   62.4405   45.3803 Z8         2 LUT     -0.191631
    147 C9         70.8610   62.1507   44.0448 Z9         2 LUT      0.196698
    148 C10        71.8527   62.9539   43.5806 Y1         2 LUT     -0.208611
    149 C11        72.5409   62.9120   42.3396 Y2         2 LUT      0.030784
    150 C12        73.7390   63.6412   42.4083 Y3         2 LUT     -0.220316
    151 C13        74.6262   63.7102   41.2522 Y4         2 LUT      0.215937
    152 C14        75.7971   64.4261   41.3945 Y5         2 LUT     -0.185793
    153 C15        76.8776   64.6570   40.4322 Y6         2 LUT     -0.057835
    154 C16        69.2998   59.7104   48.3037 Y7         2 LUT     -0.405615
    155 C17        69.8036   61.7296   49.6713 Y7         2 LUT     -0.405615
    156 C18        67.7120   64.2547   46.1857 Y9         2 LUT     -0.369639
    157 C19        70.1603   60.9302   43.2799 W1         2 LUT     -0.333362
    158 C20        74.2875   63.0112   39.9765 W2         2 LUT     -0.323439
    159 C21        88.3348   65.5240   34.0765 Z1         2 LUT      0.406104
    160 C22        88.9199   64.8951   32.8575 Z2         2 LUT     -0.404965
    161 C23        89.0429   65.7557   31.6227 Z3         2 LUT      0.391255
    162 O23        89.3232   64.8137   30.6399 S1         2 LUT     -0.528210
    163 C24        87.7916   66.4930   31.3814 W6         2 LUT     -0.258361
    164 C25        86.9090   66.8427   32.3759 Z5         2 LUT      0.133546
    165 C26        86.9049   66.0633   33.7232 W8         2 LUT     -0.147008
    166 C27        86.1168   66.7288   34.8654 Z7         2 LUT      0.023843
    167 C28        84.9000   66.3995   35.3774 Z8         2 LUT     -0.216987
    168 C29        84.2413   66.9766   36.5958 Z9         2 LUT      0.206524
    169 C30        82.9634   66.5340   36.9571 Y1         2 LUT     -0.215556
    170 C31        82.0794   66.8722   38.0612 Y2         2 LUT      0.025142
    171 C32        80.7887   66.3145   38.2999 Y3         2 LUT     -0.212209
    172 C33        79.9500   66.4536   39.4314 Y4         2 LUT      0.240937
    173 C34        78.9128   65.5843   39.5620 Y5         2 LUT     -0.218862
    174 C35        77.9639   65.4741   40.6372 Y6         2 LUT     -0.023547
    175 C36        89.3413   66.6195   34.5270 Y7         2 LUT     -0.393485
    176 C37        88.2698   64.4481   35.1864 Y7         2 LUT     -0.393485
    177 C38        85.7344   67.8023   32.1006 Y9         2 LUT     -0.387526
    178 C39        84.9535   68.0752   37.3644 W1         2 LUT     -0.322618
    179 C40        80.3210   67.4826   40.4739 W2         2 LUT     -0.358472
    180 H403       79.5884   67.5572   41.2524 R7         2 LUT      0.097720
    181 H402       81.1905   67.2163   40.9564 R7         2 LUT      0.097720
    182 H401       80.2664   68.4834   40.0451 R7         2 LUT      0.097720
    183 H393       84.2735   68.6629   37.9259 R4         2 LUT      0.082505
    184 H392       85.7789   67.8257   38.0341 R4         2 LUT      0.082505
    185 H391       85.3253   68.8355   36.6454 R4         2 LUT      0.082505
    186 H383       85.3180   68.3101   32.9147 R1         2 LUT      0.104030
    187 H382       86.1244   68.4748   31.3784 R1         2 LUT      0.104030
    188 H381       84.8675   67.2468   31.6412 R1         2 LUT      0.104030
    189 H373       89.2036   64.1539   35.5597 T4         2 LUT      0.089537
    190 H372       87.7227   64.8488   36.0707 T4         2 LUT      0.089537
    191 H371       87.6796   63.6993   34.6905 T4         2 LUT      0.089537
    192 H363       89.1938   67.5219   33.8579 T4         2 LUT      0.089537
    193 H362       89.0577   66.9212   35.5630 T4         2 LUT      0.089537
    194 H361       90.4089   66.2623   34.4985 T4         2 LUT      0.089537
    195 H222       89.9329   64.5918   33.0358 U2         2 LUT      0.127376
    196 H221       88.3555   63.9872   32.6416 U2         2 LUT      0.127376
    197 H203       73.5372   63.5693   39.3677 R7         2 LUT      0.087068
    198 H202       75.0880   62.7402   39.3154 R7         2 LUT      0.087068
    199 H201       73.7902   62.0282   40.0941 R7         2 LUT      0.087068
    200 H193       70.0339   59.9737   43.8363 R4         2 LUT      0.089716
    201 H192       69.1784   61.2351   42.8941 R4         2 LUT      0.089716
    202 H191       70.7049   60.6275   42.3779 R4         2 LUT      0.089716
    203 H183       67.9561   63.7021   45.2721 R1         2 LUT      0.094572
    204 H182       66.7831   64.8232   46.2057 R1         2 LUT      0.094572
    205 H181       68.4654   64.9862   46.3840 R1         2 LUT      0.094572
    206 H173       69.7504   61.1479   50.5657 T4         2 LUT      0.093752
    207 H172       70.7486   61.8311   49.2934 T4         2 LUT      0.093752
    208 H171       69.5434   62.7854   49.9722 T4         2 LUT      0.093752
    209 H163       68.7219   59.3512   47.4859 T4         2 LUT      0.093752
    210 H162       70.3134   59.8060   47.9595 T4         2 LUT      0.093752
    211 H161       69.1232   59.0309   49.0973 T4         2 LUT      0.093752
    212 HO3        66.2874   62.6353   51.5373 Q1         2 LUT      0.300121
    213 H8         70.5868   63.3400   45.9182 U7         2 LUT      0.080784
    214 H7         69.0598   60.7743   45.8102 U6         2 LUT      0.042190
    215 H42        66.1242   64.1389   48.1897 U5         2 LUT      0.145166
    216 H41        67.5025   64.2728   49.2270 U5         2 LUT      0.145166
    217 H35        77.9660   66.0766   41.6149 T3         2 LUT      0.077919
    218 H34        78.9541   64.8070   38.7835 T2         2 LUT      0.073626
    219 H32        80.4943   65.5365   37.6065 T1         2 LUT      0.092510
    220 H31        82.5736   67.5328   38.8082 U9         2 LUT      0.070048
    221 H30        82.5717   65.7536   36.3889 U8         2 LUT      0.085442
    222 H3         65.6265   62.2738   49.3253 U3         2 LUT     -0.031596
    223 H28        84.2524   65.7195   34.8747 U7         2 LUT      0.084728
    224 H27        86.7428   67.4619   35.3989 U6         2 LUT      0.087291
    225 H26        86.3389   65.1704   33.4950 Q6         2 LUT      0.075325
    226 H24        87.6541   66.9797   30.4224 Q5         2 LUT      0.094482
    227 H23        89.8913   66.4708   31.8134 U3         2 LUT     -0.024869
    228 H22        66.6754   60.4413   48.5475 U2         2 LUT      0.127376
    229 H21        67.3766   60.4039   50.1592 U2         2 LUT      0.127376
    230 H15        76.7289   64.2292   39.3843 T3         2 LUT      0.093200
    231 H14        76.0211   64.9008   42.3541 T2         2 LUT      0.068865
    232 H12        74.0210   64.1278   43.3106 T1         2 LUT      0.095507
    233 H11        72.0436   62.4948   41.4465 U9         2 LUT      0.068930
    234 H10        72.1722   63.6578   44.3879 U8         2 LUT      0.083911
    235 H1         89.7016   65.2706   29.8889 Q1         2 LUT      0.297311
@<TRIPOS>BOND
    1     6     1 1
    2     7     2 1
    3     8     3 1
    4     9     4 1
    5    11     4 1
    6    12     6 1
    7    13     9 1
    8    16     9 1
    9    25     5 1
   10    25    16 1
   11    26    10 1
   12    26    17 1
   13    27    18 1
   14    28    14 1
   15    28    19 1
   16    29    12 1
   17    30    13 1
   18    31    24 1
   19    32     1 1
   20    32    25 1
   21    33    21 1
   22    33    26 1
   23    34    22 1
   24    34    27 1
   25    35    23 1
   26    35    28 1
   27    36    12 1
   28    36    24 1
   29    37    13 1
   30    37    15 1
   31    38    31 1
   32    39    20 1
   33    39    32 1
   34    40     2 1
   35    40    33 1
   36    41     3 1
   37    41    34 1
   38    42     4 1
   39    42    35 1
   40    43    38 1
   41    44     5 1
   42    44    17 1
   43    44    39 1
   44    45    10 1
   45    45    18 1
   46    45    40 1
   47    46    19 1
   48    46    41 1
   49    47    14 1
   50    47    16 1
   51    47    42 1
   52    48    38 1
   53    49    48 1
   54    50    49 1
   55    51    50 1
   56    52    51 1
   57    53    51 1
   58    54    53 1
   59    55    54 1
   60    56    55 1
   61    57    56 1
   62    58    56 1
   63    59    58 1
   64    60    59 1
   65    61    60 1
   66    62    61 1
   67    63    61 1
   68    64    27 1
   69    64    46 1
   70    65     5 1
   71    65    10 1
   72    65    64 1
   73    65    14 1
   74    66    23 1
   75    67    23 1
   76    68    23 1
   77    69    22 1
   78    70    22 1
   79    71    22 1
   80    72    21 1
   81    73    21 1
   82    74    21 1
   83    75    20 1
   84    76    20 1
   85    77    20 1
   86    78    15 1
   87    79    15 1
   88    80    15 1
   89    81     8 1
   90    82     8 1
   91    83     8 1
   92    84     7 1
   93    85     7 1
   94    86     6 1
   95    87     6 1
   96    88     3 1
   97    89     3 1
   98    90     1 1
   99    91     1 1
  100    92    63 1
  101    93    63 1
  102    94    63 1
  103    95    62 1
  104    96    62 1
  105    97    62 1
  106    98    60 1
  107    99    60 1
  108   100    59 1
  109   101    59 1
  110   102    58 1
  111   103    58 1
  112   104    57 1
  113   105    57 1
  114   106    57 1
  115   107    55 1
  116   108    55 1
  117   109    54 1
  118   110    54 1
  119   111    53 1
  120   112    53 1
  121   113    19 1
  122   114    18 1
  123   115    17 1
  124   116     9 1
  125   117     2 1
  126   118    52 1
  127   119    52 1
  128   120    52 1
  129   121    51 1
  130   122    50 1
  131   123    50 1
  132   124    49 1
  133   125    49 1
  134   126    48 1
  135   127    48 1
  136   128    43 1
  137   129    43 1
  138   130    43 1
  139   131    39 1
  140   132    32 1
  141   133    31 1
  142   134    61 1
  143   135    56 1
  144   136    24 1
  145   137    24 1
  146   139   138 1
  147   140   139 1
  148   141   140 1
  149   142   140 1
  150   143   142 1
  151   144   138 1
  152   144   143 1
  153   145   144 1
  154   146   145 1
  155   147   146 1
  156   148   147 1
  157   149   148 1
  158   150   149 1
  159   151   150 1
  160   152   151 1
  161   153   152 1
  162   154   138 1
  163   155   138 1
  164   156   143 1
  165   157   147 1
  166   158   151 1
  167   160   159 1
  168   161   160 1
  169   162   161 1
  170   163   161 1
  171   164   163 1
  172   165   159 1
  173   165   164 1
  174   166   165 1
  175   167   166 1
  176   168   167 1
  177   169   168 1
  178   170   169 1
  179   171   170 1
  180   172   171 1
  181   173   172 1
  182   174   153 1
  183   174   173 1
  184   175   159 1
  185   176   159 1
  186   177   164 1
  187   178   168 1
  188   179   172 1
  189   180   179 1
  190   181   179 1
  191   182   179 1
  192   183   178 1
  193   184   178 1
  194   185   178 1
  195   186   177 1
  196   187   177 1
  197   188   177 1
  198   189   176 1
  199   190   176 1
  200   191   176 1
  201   192   175 1
  202   193   175 1
  203   194   175 1
  204   195   160 1
  205   196   160 1
  206   197   158 1
  207   198   158 1
  208   199   158 1
  209   200   157 1
  210   201   157 1
  211   202   157 1
  212   203   156 1
  213   204   156 1
  214   205   156 1
  215   206   155 1
  216   207   155 1
  217   208   155 1
  218   209   154 1
  219   210   154 1
  220   211   154 1
  221   212   141 1
  222   213   146 1
  223   214   145 1
  224   215   142 1
  225   216   142 1
  226   217   174 1
  227   218   173 1
  228   219   171 1
  229   220   170 1
  230   221   169 1
  231   222   140 1
  232   223   167 1
  233   224   166 1
  234   225   165 1
  235   226   163 1
  236   227   161 1
  237   228   139 1
  238   229   139 1
  239   230   153 1
  240   231   152 1
  241   232   150 1
  242   233   149 1
  243   234   148 1
  244   235   162 1
  245   65    153 1
  246   65    174 1
@<TRIPOS>SUBSTRUCTURE
      1 CLA               1 ****               0 ****  **** 
      2 LUT             138 ****               0 ****  **** 
