@<TRIPOS>MOLECULE
Cpptraj generated mol2 file.
  235   246     2     0     0
SMALL
USER_CHARGES


@<TRIPOS>ATOM
      1 CAA        79.4326   57.9568   34.3798 a2         1 CLA     -0.055900
      2 CAB        80.0813   62.4267   43.0809 c8         1 CLA     -0.148500
      3 CAC        72.9945   58.4858   43.3567 a2         1 CLA     -0.012600
      4 CAD        75.1319   55.8302   35.7822 ck         1 CLA      0.398800
      5 NA         78.5614   58.6291   37.8454 ns         1 CLA     -0.225500
      6 CBA        80.5787   57.6429   33.4483 a2         1 CLA     -0.135000
      7 CBB        81.1900   63.0914   43.5329 c0         1 CLA     -0.395200
      8 CBC        72.6621   56.9580   43.4050 a3         1 CLA     -0.037700
      9 CBD        76.6188   56.3126   35.3841 a1         1 CLA     -0.053900
     10 NB         78.7170   60.1120   40.4206 nm         1 CLA     -0.295700
     11 OBD        74.4193   55.0687   35.1493 o2         1 CLA     -0.494600
     12 CGA        80.9002   56.1900   33.0549 c4         1 CLA      0.827000
     13 CGD        77.6045   55.1503   35.2598 c4         1 CLA      0.655300
     14 ND         75.7578   57.9074   38.6142 nm         1 CLA     -0.291600
     15 CED        78.8151   53.6183   36.5705 a3         1 CLA      0.005400
     16 CHA        77.0701   57.2413   36.5627 cs         1 CLA     -0.123800
     17 CHB        80.5600   59.8914   38.7327 aa         1 CLA     -0.291900
     18 CHC        77.4998   60.6971   42.3798 aa         1 CLA     -0.090400
     19 CHD        74.1064   57.9265   40.3888 aa         1 CLA     -0.052000
     20 CMA        81.9309   57.8789   36.9037 a3         1 CLA     -0.230700
     21 CMB        81.9484   62.1615   40.3769 a3         1 CLA     -0.180800
     22 CMC        75.3829   60.1964   44.7537 a3         1 CLA     -0.134000
     23 CMD        72.4940   56.1784   38.0917 a3         1 CLA     -0.141100
     24 C1         81.6776   54.1210   34.0469 a2         1 CLA      0.023000
     25 C1A        78.2719   57.9067   36.7314 ac         1 CLA     -0.015100
     26 C1B        79.9582   60.3989   39.8747 cr         1 CLA      0.054700
     27 C1C        76.3348   59.9835   42.2364 cn         1 CLA     -0.005600
     28 C1D        74.5418   57.5659   39.1094 ap         1 CLA     -0.047300
     29 O1A        80.6041   55.6420   31.9852 o2         1 CLA     -0.610800
     30 O1D        78.2201   54.7939   34.3116 o2         1 CLA     -0.558200
     31 C2         82.4551   53.6885   35.2338 c8         1 CLA     -0.325100
     32 C2A        79.5612   57.6332   35.8854 a1         1 CLA      0.098600
     33 C2B        80.6385   61.3756   40.7362 cb         1 CLA      0.088500
     34 C2C        75.3067   59.7524   43.3159 cb         1 CLA      0.053700
     35 C2D        73.8416   56.7585   38.1219 cb         1 CLA      0.058900
     36 O2A        81.4934   55.5372   34.1787 o1         1 CLA     -0.437200
     37 O2D        77.7278   54.6009   36.5096 o1         1 CLA     -0.357600
     38 C3         83.6874   53.1554   35.1917 c5         1 CLA      0.031200
     39 C3A        80.5936   58.6263   36.5916 a1         1 CLA      0.166800
     40 C3B        79.8661   61.4945   41.9189 cb         1 CLA      0.035000
     41 C3C        74.3043   58.9248   42.7499 cb         1 CLA     -0.089900
     42 C3D        74.8194   56.5016   37.0684 cb         1 CLA     -0.035900
     43 C4         83.9961   51.7403   34.8069 a3         1 CLA     -0.053300
     44 C4A        79.8826   59.0864   37.7983 ac         1 CLA      0.001800
     45 C4B        78.6009   60.7956   41.5992 cn         1 CLA     -0.020900
     46 C4C        74.7454   58.6973   41.3539 cr         1 CLA     -0.044400
     47 C4D        75.9299   57.3019   37.4306 c6         1 CLA     -0.046000
     48 C5         84.7890   54.1553   35.4874 a2         1 CLA     -0.070400
     49 C6         84.7514   54.5555   36.9082 a2         1 CLA      0.043900
     50 C7         86.0970   55.2493   37.3271 a2         1 CLA     -0.150000
     51 C8         85.9750   56.1402   38.6178 a1         1 CLA      0.064200
     52 C9         85.3321   57.4383   38.2504 a3         1 CLA     -0.259300
     53 C10        87.3407   56.3886   39.3555 a2         1 CLA     -0.071900
     54 C11        87.2837   57.1287   40.6413 a2         1 CLA      0.014500
     55 C12        88.3581   56.6194   41.6144 a2         1 CLA     -0.112100
     56 C13        88.5015   57.4123   42.9457 a1         1 CLA      0.089200
     57 C14        89.6930   56.7966   43.8079 a3         1 CLA     -0.239100
     58 C15        87.2441   57.3750   43.7687 a2         1 CLA     -0.102200
     59 C16        87.0819   58.0654   45.1461 a2         1 CLA      0.023900
     60 C17        85.6955   57.8350   45.7895 a2         1 CLA     -0.105700
     61 C18        85.4621   58.3881   47.2344 a1         1 CLA      0.206800
     62 C19        84.0402   58.0391   47.7232 a3         1 CLA     -0.280100
     63 C20        86.5631   58.0561   48.3212 a3         1 CLA     -0.280100
     64 NC         76.0187   59.2061   41.1458 nx         1 CLA     -0.309200
     65 MG         77.2205   59.0617   39.4495 mg         1 CLA      0.895000
     66 HMD3       72.2250   55.7003   39.0243 dc         1 CLA      0.064300
     67 HMD2       71.7899   56.9760   37.8842 dc         1 CLA      0.064300
     68 HMD1       72.2802   55.4305   37.3271 dc         1 CLA      0.064300
     69 HMC3       75.2546   61.2676   44.8740 dc         1 CLA      0.052100
     70 HMC2       74.6862   59.6685   45.4738 dc         1 CLA      0.052100
     71 HMC1       76.4297   60.1072   45.0720 dc         1 CLA      0.052100
     72 HMB3       82.0356   62.1394   39.3073 dc         1 CLA      0.063600
     73 HMB2       81.9384   63.3131   40.5179 dc         1 CLA      0.063600
     74 HMB1       82.7568   61.6622   40.8343 dc         1 CLA      0.063600
     75 HMA3       82.2523   57.3275   35.9861 dc         1 CLA      0.058300
     76 HMA2       82.6497   58.5843   37.1693 dc         1 CLA      0.058300
     77 HMA1       81.7371   57.3123   37.8571 dc         1 CLA      0.058300
     78 HED3       78.8130   52.8879   35.7938 dc         1 CLA      0.079300
     79 HED2       79.6957   54.2486   36.6073 dc         1 CLA      0.079300
     80 HED1       78.6147   53.1181   37.4687 dc         1 CLA      0.079300
     81 HBC3       72.0155   56.8011   44.2614 dc         1 CLA      0.016300
     82 HBC2       72.1869   56.5822   42.5034 dc         1 CLA      0.016300
     83 HBC1       73.6326   56.4005   43.5397 dc         1 CLA      0.016300
     84 HBB2       81.0373   63.6095   44.4627 da         1 CLA      0.183000
     85 HBB1       82.1704   63.0907   43.0236 da         1 CLA      0.183000
     86 HBA2       80.3947   58.2430   32.6022 dc         1 CLA      0.029400
     87 HBA1       81.4374   58.0685   33.8821 dc         1 CLA      0.029400
     88 HAC2       72.9342   58.8447   44.3781 dc         1 CLA      0.029300
     89 HAC1       72.1432   58.8641   42.7678 dc         1 CLA      0.029300
     90 HAA2       78.5078   57.5946   34.0556 dc         1 CLA      0.028700
     91 HAA1       79.1857   59.0216   34.2934 dc         1 CLA      0.028700
     92 H203       86.2447   58.4431   49.3183 dc         1 CLA      0.065600
     93 H202       86.6582   56.9753   48.4242 dc         1 CLA      0.065600
     94 H201       87.5487   58.4501   48.0077 dc         1 CLA      0.065600
     95 H193       83.7648   58.5805   48.6269 dc         1 CLA      0.065600
     96 H192       83.2505   58.1298   46.9475 dc         1 CLA      0.065600
     97 H191       84.2607   57.0534   48.0936 dc         1 CLA      0.065600
     98 H172       84.9283   58.4440   45.2426 dc         1 CLA      0.027600
     99 H171       85.4729   56.7788   45.9167 dc         1 CLA      0.027600
    100 H162       87.8278   57.6019   45.8319 dc         1 CLA      0.002900
    101 H161       87.1650   59.1776   44.8631 dc         1 CLA      0.002900
    102 H152       86.4430   57.7639   43.1604 dc         1 CLA      0.029100
    103 H151       87.0462   56.3747   43.9958 dc         1 CLA      0.029100
    104 H143       89.5148   55.7343   44.0916 dc         1 CLA      0.063600
    105 H142       90.6249   56.8553   43.2451 dc         1 CLA      0.063600
    106 H141       89.8660   57.2420   44.7601 dc         1 CLA      0.063600
    107 H122       88.3190   55.5884   41.9342 dc         1 CLA      0.032500
    108 H121       89.3474   56.7830   41.1778 dc         1 CLA      0.032500
    109 H112       87.4449   58.2197   40.4940 dc         1 CLA      0.006600
    110 H111       86.3801   56.8498   41.1673 dc         1 CLA      0.006600
    111 H102       87.7198   55.3920   39.4637 dc         1 CLA      0.024100
    112 H101       88.0192   56.9106   38.6318 dc         1 CLA      0.024100
    113 HHD        73.1612   57.4777   40.6442 da         1 CLA      0.174300
    114 HHC        77.4679   61.2177   43.3948 da         1 CLA      0.136800
    115 HHB        81.5460   60.2875   38.5330 da         1 CLA      0.138300
    116 HBD        76.6407   56.8704   34.4249 dc         1 CLA      0.107700
    117 HAB        79.2256   62.6080   43.6970 da         1 CLA      0.155200
    118 H93        84.5143   57.2395   37.5677 dc         1 CLA      0.069500
    119 H92        84.8189   57.9385   39.0906 dc         1 CLA      0.069500
    120 H91        86.0860   58.0652   37.7968 dc         1 CLA      0.069500
    121 H8         85.3590   55.6573   39.3086 dc         1 CLA      0.029300
    122 H72        86.6367   54.3959   37.5086 dc         1 CLA      0.044400
    123 H71        86.4426   55.9476   36.5101 dc         1 CLA      0.044400
    124 H62        83.8380   55.2069   37.1307 dc         1 CLA      0.015600
    125 H61        84.6674   53.6415   37.4306 dc         1 CLA      0.015600
    126 H52        85.7422   53.7414   35.2424 dc         1 CLA      0.033200
    127 H51        84.5471   55.0477   34.9396 dc         1 CLA      0.033200
    128 H43        84.7397   51.7914   34.0379 dc         1 CLA      0.037000
    129 H42        84.3274   51.1635   35.5864 dc         1 CLA      0.037000
    130 H41        83.0817   51.2571   34.5335 dc         1 CLA      0.037000
    131 H3A        80.8352   59.4911   36.0503 dc         1 CLA      0.041100
    132 H2A        79.8576   56.5996   35.9095 dc         1 CLA      0.083100
    133 H2         82.0031   53.5759   36.1910 da         1 CLA      0.180900
    134 H18        85.2969   59.5232   47.2050 dc         1 CLA     -0.003900
    135 H13        88.6458   58.4213   42.5887 dc         1 CLA      0.019700
    136 H12        80.6789   53.7476   34.1618 dc         1 CLA      0.120400
    137 H11        82.1173   53.6752   33.0754 dc         1 CLA      0.120400
    138 C1         68.8991   61.5663   50.1370 Z1         2 LUT      0.509236
    139 C2         69.1716   62.8355   50.9521 Z2         2 LUT     -0.434695
    140 C3         67.9742   63.6375   51.1684 Z3         2 LUT      0.437453
    141 O3         68.4417   64.9567   51.5573 S1         2 LUT     -0.547129
    142 C4         67.1096   63.6972   49.8435 Z4         2 LUT     -0.468603
    143 C5         67.7488   63.1360   48.6176 Z5         2 LUT      0.279246
    144 C6         68.6320   62.1111   48.6694 Z6         2 LUT     -0.305473
    145 C7         69.6250   61.8314   47.6040 Z7         2 LUT      0.069402
    146 C8         70.5297   62.5212   46.9533 Z8         2 LUT     -0.191631
    147 C9         71.1285   62.2822   45.5618 Z9         2 LUT      0.196698
    148 C10        72.0162   63.2124   45.1089 Y1         2 LUT     -0.208611
    149 C11        72.7936   63.2062   43.8971 Y2         2 LUT      0.030784
    150 C12        73.9353   63.8620   43.7214 Y3         2 LUT     -0.220316
    151 C13        74.8734   63.7374   42.5914 Y4         2 LUT      0.215937
    152 C14        76.0591   64.4668   42.6740 Y5         2 LUT     -0.185793
    153 C15        77.1667   64.4689   41.7933 Y6         2 LUT     -0.057835
    154 C16        67.8790   60.5742   50.7741 Y7         2 LUT     -0.405615
    155 C17        70.2003   60.7332   50.2764 Y7         2 LUT     -0.405615
    156 C18        67.4790   64.0613   47.4703 Y9         2 LUT     -0.369639
    157 C19        70.7512   60.9864   44.8072 W1         2 LUT     -0.333362
    158 C20        74.5743   62.7809   41.5108 W2         2 LUT     -0.323439
    159 C21        88.2377   65.6132   34.9527 Z1         2 LUT      0.406104
    160 C22        88.6858   64.9290   33.7058 Z2         2 LUT     -0.404965
    161 C23        88.6483   65.6224   32.3740 Z3         2 LUT      0.391255
    162 O23        88.6036   64.5640   31.3809 S1         2 LUT     -0.528210
    163 C24        87.4241   66.5396   32.2806 W6         2 LUT     -0.258361
    164 C25        86.4913   66.6719   33.2521 Z5         2 LUT      0.133546
    165 C26        86.6596   66.0232   34.6578 W8         2 LUT     -0.147008
    166 C27        85.9935   66.6223   35.8933 Z7         2 LUT      0.023843
    167 C28        84.8753   66.2281   36.5074 Z8         2 LUT     -0.216987
    168 C29        84.2194   66.8573   37.6041 Z9         2 LUT      0.206524
    169 C30        83.1654   66.1347   38.1017 Y1         2 LUT     -0.215556
    170 C31        82.4860   66.2568   39.3442 Y2         2 LUT      0.025142
    171 C32        81.3158   65.6486   39.6081 Y3         2 LUT     -0.212209
    172 C33        80.4739   65.7652   40.7873 Y4         2 LUT      0.240937
    173 C34        79.2506   65.1237   40.7880 Y5         2 LUT     -0.218862
    174 C35        78.2738   65.2094   41.8225 Y6         2 LUT     -0.023547
    175 C36        89.2438   66.7913   35.2409 Y7         2 LUT     -0.393485
    176 C37        88.1264   64.4984   36.0499 Y7         2 LUT     -0.393485
    177 C38        85.2603   67.6094   33.0215 Y9         2 LUT     -0.387526
    178 C39        84.9344   68.0381   38.3334 W1         2 LUT     -0.322618
    179 C40        81.1047   66.4813   41.9846 W2         2 LUT     -0.358472
    180 H403       80.5516   66.4864   42.8719 R7         2 LUT      0.097720
    181 H402       82.0122   66.0386   42.3621 R7         2 LUT      0.097720
    182 H401       81.3862   67.5198   41.8714 R7         2 LUT      0.097720
    183 H393       85.6386   68.5084   37.6770 R4         2 LUT      0.082505
    184 H392       84.2243   68.7726   38.6890 R4         2 LUT      0.082505
    185 H391       85.4920   67.6152   39.1733 R4         2 LUT      0.082505
    186 H383       84.5392   67.0331   32.4602 R1         2 LUT      0.104030
    187 H382       84.8488   67.9165   33.9735 R1         2 LUT      0.104030
    188 H381       85.4798   68.5027   32.3971 R1         2 LUT      0.104030
    189 H373       89.1492   64.1763   36.3785 T4         2 LUT      0.089537
    190 H372       87.4856   64.7519   36.9662 T4         2 LUT      0.089537
    191 H371       87.6724   63.5907   35.6515 T4         2 LUT      0.089537
    192 H363       89.4193   67.2922   34.3165 T4         2 LUT      0.089537
    193 H362       88.9148   67.5948   35.9228 T4         2 LUT      0.089537
    194 H361       90.1272   66.3781   35.7194 T4         2 LUT      0.089537
    195 H222       89.7502   64.6776   33.9676 U2         2 LUT      0.127376
    196 H221       87.9853   64.0962   33.5862 U2         2 LUT      0.127376
    197 H203       74.4297   61.7797   41.7870 R7         2 LUT      0.087068
    198 H202       73.6458   63.1217   40.9808 R7         2 LUT      0.087068
    199 H201       75.3320   62.8304   40.7377 R7         2 LUT      0.087068
    200 H193       69.6867   60.7231   44.6956 R4         2 LUT      0.089716
    201 H192       71.1648   60.9730   43.8026 R4         2 LUT      0.089716
    202 H191       71.2051   60.0903   45.2500 R4         2 LUT      0.089716
    203 H183       66.6755   63.7677   46.8307 R1         2 LUT      0.094572
    204 H182       67.3204   65.1139   47.8120 R1         2 LUT      0.094572
    205 H181       68.3850   64.1839   46.8626 R1         2 LUT      0.094572
    206 H173       71.1650   61.3221   50.1943 T4         2 LUT      0.093752
    207 H172       70.1759   60.2806   51.3277 T4         2 LUT      0.093752
    208 H171       70.3031   59.8349   49.5534 T4         2 LUT      0.093752
    209 H163       67.9944   59.5201   50.4631 T4         2 LUT      0.093752
    210 H162       67.8644   60.7885   51.8199 T4         2 LUT      0.093752
    211 H161       66.8789   60.9093   50.4310 T4         2 LUT      0.093752
    212 HO3        67.7168   65.3748   51.9965 Q1         2 LUT      0.300121
    213 H8         70.5844   63.5191   47.2624 U7         2 LUT      0.080784
    214 H7         69.4699   60.7689   47.2801 U6         2 LUT      0.042190
    215 H42        66.1724   63.1451   49.9796 U5         2 LUT      0.145166
    216 H41        66.5401   64.6495   49.7815 U5         2 LUT      0.145166
    217 H35        78.4197   65.9124   42.6151 T3         2 LUT      0.077919
    218 H34        79.0166   64.4906   39.9594 T2         2 LUT      0.073626
    219 H32        80.9432   65.0035   38.8167 T1         2 LUT      0.092510
    220 H31        82.8969   66.9565   40.0347 U9         2 LUT      0.070048
    221 H30        82.7832   65.2973   37.4993 U8         2 LUT      0.085442
    222 H3         67.3727   63.1133   51.9403 U3         2 LUT     -0.031596
    223 H28        84.2797   65.3578   36.1622 U7         2 LUT      0.084728
    224 H27        86.5324   67.5091   36.3028 U6         2 LUT      0.087291
    225 H26        86.0858   65.0542   34.4455 Q6         2 LUT      0.075325
    226 H24        87.4080   67.1736   31.4607 Q5         2 LUT      0.094482
    227 H23        89.6324   66.1921   32.1635 U3         2 LUT     -0.024869
    228 H22        69.4333   62.5755   52.0240 U2         2 LUT      0.127376
    229 H21        69.9580   63.4092   50.5201 U2         2 LUT      0.127376
    230 H15        77.0322   63.6991   40.9756 T3         2 LUT      0.093200
    231 H14        76.1668   65.1836   43.4717 T2         2 LUT      0.068865
    232 H12        74.3844   64.3720   44.5731 T1         2 LUT      0.095507
    233 H11        72.4921   62.5875   43.0623 U9         2 LUT      0.068930
    234 H10        72.2387   64.1114   45.7422 U8         2 LUT      0.083911
    235 H1         88.9576   64.9602   30.5754 Q1         2 LUT      0.297311
@<TRIPOS>BOND
    1     6     1 1
    2     7     2 1
    3     8     3 1
    4     9     4 1
    5    11     4 1
    6    12     6 1
    7    13     9 1
    8    16     9 1
    9    25     5 1
   10    25    16 1
   11    26    10 1
   12    26    17 1
   13    27    18 1
   14    28    14 1
   15    28    19 1
   16    29    12 1
   17    30    13 1
   18    31    24 1
   19    32     1 1
   20    32    25 1
   21    33    21 1
   22    33    26 1
   23    34    22 1
   24    34    27 1
   25    35    23 1
   26    35    28 1
   27    36    12 1
   28    36    24 1
   29    37    13 1
   30    37    15 1
   31    38    31 1
   32    39    20 1
   33    39    32 1
   34    40     2 1
   35    40    33 1
   36    41     3 1
   37    41    34 1
   38    42     4 1
   39    42    35 1
   40    43    38 1
   41    44     5 1
   42    44    17 1
   43    44    39 1
   44    45    10 1
   45    45    18 1
   46    45    40 1
   47    46    19 1
   48    46    41 1
   49    47    14 1
   50    47    16 1
   51    47    42 1
   52    48    38 1
   53    49    48 1
   54    50    49 1
   55    51    50 1
   56    52    51 1
   57    53    51 1
   58    54    53 1
   59    55    54 1
   60    56    55 1
   61    57    56 1
   62    58    56 1
   63    59    58 1
   64    60    59 1
   65    61    60 1
   66    62    61 1
   67    63    61 1
   68    64    27 1
   69    64    46 1
   70    65     5 1
   71    65    10 1
   72    65    64 1
   73    65    14 1
   74    66    23 1
   75    67    23 1
   76    68    23 1
   77    69    22 1
   78    70    22 1
   79    71    22 1
   80    72    21 1
   81    73    21 1
   82    74    21 1
   83    75    20 1
   84    76    20 1
   85    77    20 1
   86    78    15 1
   87    79    15 1
   88    80    15 1
   89    81     8 1
   90    82     8 1
   91    83     8 1
   92    84     7 1
   93    85     7 1
   94    86     6 1
   95    87     6 1
   96    88     3 1
   97    89     3 1
   98    90     1 1
   99    91     1 1
  100    92    63 1
  101    93    63 1
  102    94    63 1
  103    95    62 1
  104    96    62 1
  105    97    62 1
  106    98    60 1
  107    99    60 1
  108   100    59 1
  109   101    59 1
  110   102    58 1
  111   103    58 1
  112   104    57 1
  113   105    57 1
  114   106    57 1
  115   107    55 1
  116   108    55 1
  117   109    54 1
  118   110    54 1
  119   111    53 1
  120   112    53 1
  121   113    19 1
  122   114    18 1
  123   115    17 1
  124   116     9 1
  125   117     2 1
  126   118    52 1
  127   119    52 1
  128   120    52 1
  129   121    51 1
  130   122    50 1
  131   123    50 1
  132   124    49 1
  133   125    49 1
  134   126    48 1
  135   127    48 1
  136   128    43 1
  137   129    43 1
  138   130    43 1
  139   131    39 1
  140   132    32 1
  141   133    31 1
  142   134    61 1
  143   135    56 1
  144   136    24 1
  145   137    24 1
  146   139   138 1
  147   140   139 1
  148   141   140 1
  149   142   140 1
  150   143   142 1
  151   144   138 1
  152   144   143 1
  153   145   144 1
  154   146   145 1
  155   147   146 1
  156   148   147 1
  157   149   148 1
  158   150   149 1
  159   151   150 1
  160   152   151 1
  161   153   152 1
  162   154   138 1
  163   155   138 1
  164   156   143 1
  165   157   147 1
  166   158   151 1
  167   160   159 1
  168   161   160 1
  169   162   161 1
  170   163   161 1
  171   164   163 1
  172   165   159 1
  173   165   164 1
  174   166   165 1
  175   167   166 1
  176   168   167 1
  177   169   168 1
  178   170   169 1
  179   171   170 1
  180   172   171 1
  181   173   172 1
  182   174   153 1
  183   174   173 1
  184   175   159 1
  185   176   159 1
  186   177   164 1
  187   178   168 1
  188   179   172 1
  189   180   179 1
  190   181   179 1
  191   182   179 1
  192   183   178 1
  193   184   178 1
  194   185   178 1
  195   186   177 1
  196   187   177 1
  197   188   177 1
  198   189   176 1
  199   190   176 1
  200   191   176 1
  201   192   175 1
  202   193   175 1
  203   194   175 1
  204   195   160 1
  205   196   160 1
  206   197   158 1
  207   198   158 1
  208   199   158 1
  209   200   157 1
  210   201   157 1
  211   202   157 1
  212   203   156 1
  213   204   156 1
  214   205   156 1
  215   206   155 1
  216   207   155 1
  217   208   155 1
  218   209   154 1
  219   210   154 1
  220   211   154 1
  221   212   141 1
  222   213   146 1
  223   214   145 1
  224   215   142 1
  225   216   142 1
  226   217   174 1
  227   218   173 1
  228   219   171 1
  229   220   170 1
  230   221   169 1
  231   222   140 1
  232   223   167 1
  233   224   166 1
  234   225   165 1
  235   226   163 1
  236   227   161 1
  237   228   139 1
  238   229   139 1
  239   230   153 1
  240   231   152 1
  241   232   150 1
  242   233   149 1
  243   234   148 1
  244   235   162 1
  245   65    153 1
  246   65    174 1
@<TRIPOS>SUBSTRUCTURE
      1 CLA               1 ****               0 ****  **** 
      2 LUT             138 ****               0 ****  **** 
