@<TRIPOS>MOLECULE
Cpptraj generated mol2 file.
  235   246     2     0     0
SMALL
USER_CHARGES


@<TRIPOS>ATOM
      1 CAA        79.7300   58.5757   34.9305 a2         1 CLA     -0.055900
      2 CAB        80.1774   62.8956   43.6250 c8         1 CLA     -0.148500
      3 CAC        73.4679   58.3044   43.7231 a2         1 CLA     -0.012600
      4 CAD        75.8139   56.1009   36.3077 ck         1 CLA      0.398800
      5 NA         79.1011   58.9430   38.3873 ns         1 CLA     -0.225500
      6 CBA        80.9792   58.5519   33.9979 a2         1 CLA     -0.135000
      7 CBB        81.3868   63.2451   44.1319 c0         1 CLA     -0.395200
      8 CBC        73.6554   57.6403   45.1202 a3         1 CLA     -0.037700
      9 CBD        77.2954   56.5673   35.8894 a1         1 CLA     -0.053900
     10 NB         79.0096   60.6485   40.8895 nm         1 CLA     -0.295700
     11 OBD        75.1469   55.3005   35.7196 o2         1 CLA     -0.494600
     12 CGA        81.5605   57.2459   33.4420 c4         1 CLA      0.827000
     13 CGD        78.1312   55.3187   35.5634 c4         1 CLA      0.655300
     14 ND         76.4305   58.0112   39.1647 nm         1 CLA     -0.291600
     15 CED        78.8966   53.1381   36.4812 a3         1 CLA      0.005400
     16 CHA        77.7582   57.3958   37.0700 cs         1 CLA     -0.123800
     17 CHB        80.8261   60.4541   39.1981 aa         1 CLA     -0.291900
     18 CHC        77.8095   60.9501   43.0545 aa         1 CLA     -0.090400
     19 CHD        74.6362   57.9249   40.8359 aa         1 CLA     -0.052000
     20 CMA        82.3381   58.0769   37.8105 a3         1 CLA     -0.230700
     21 CMB        82.1078   62.5554   41.1083 a3         1 CLA     -0.180800
     22 CMC        75.7087   60.3781   45.2531 a3         1 CLA     -0.134000
     23 CMD        73.0661   56.3678   38.4219 a3         1 CLA     -0.141100
     24 C1         82.7378   55.2805   34.2199 a2         1 CLA      0.023000
     25 C1A        78.9203   58.1379   37.2649 ac         1 CLA     -0.015100
     26 C1B        80.2384   60.9924   40.3724 cr         1 CLA      0.054700
     27 C1C        76.6608   60.1765   42.8100 cn         1 CLA     -0.005600
     28 C1D        75.1712   57.5534   39.5912 ap         1 CLA     -0.047300
     29 O1A        81.4853   56.8243   32.3073 o2         1 CLA     -0.610800
     30 O1D        78.6260   55.0367   34.4828 o2         1 CLA     -0.558200
     31 C2         83.1431   54.5763   35.4183 c8         1 CLA     -0.325100
     32 C2A        80.1219   58.0584   36.3708 a1         1 CLA      0.098600
     33 C2B        80.7723   61.9755   41.2973 cb         1 CLA      0.088500
     34 C2C        75.6529   59.8884   43.8024 cb         1 CLA      0.053700
     35 C2D        74.4722   56.7996   38.4856 cb         1 CLA      0.058900
     36 O2A        82.3119   56.6499   34.4383 o1         1 CLA     -0.437200
     37 O2D        78.2603   54.4881   36.6659 o1         1 CLA     -0.357600
     38 C3         83.9542   53.4726   35.3954 c5         1 CLA      0.031200
     39 C3A        81.1926   58.9199   37.1987 a1         1 CLA      0.166800
     40 C3B        79.9762   62.0723   42.4513 cb         1 CLA      0.035000
     41 C3C        74.7268   58.9992   43.2103 cb         1 CLA     -0.089900
     42 C3D        75.5201   56.7126   37.5689 cb         1 CLA     -0.035900
     43 C4         83.4379   52.0256   35.5163 a3         1 CLA     -0.053300
     44 C4A        80.3378   59.4342   38.3989 ac         1 CLA      0.001800
     45 C4B        78.8480   61.2407   42.1089 cn         1 CLA     -0.020900
     46 C4C        75.2408   58.7018   41.8858 cr         1 CLA     -0.044400
     47 C4D        76.6331   57.4493   37.9529 c6         1 CLA     -0.046000
     48 C5         85.5302   53.7318   35.1359 a2         1 CLA     -0.070400
     49 C6         86.0323   55.1408   35.7106 a2         1 CLA      0.043900
     50 C7         86.7147   54.9264   37.0472 a2         1 CLA     -0.150000
     51 C8         86.7867   56.1463   38.0216 a1         1 CLA      0.064200
     52 C9         87.6161   57.2547   37.4281 a3         1 CLA     -0.259300
     53 C10        87.2422   55.7633   39.4374 a2         1 CLA     -0.071900
     54 C11        86.7636   56.6434   40.5487 a2         1 CLA      0.014500
     55 C12        87.3457   56.2680   41.8993 a2         1 CLA     -0.112100
     56 C13        86.9980   57.2294   43.1000 a1         1 CLA      0.089200
     57 C14        87.6691   58.5948   42.9307 a3         1 CLA     -0.239100
     58 C15        87.3753   56.6434   44.4697 a2         1 CLA     -0.102200
     59 C16        86.8240   57.4180   45.6782 a2         1 CLA      0.023900
     60 C17        87.3695   56.8244   46.9823 a2         1 CLA     -0.105700
     61 C18        87.0109   57.5789   48.2439 a1         1 CLA      0.206800
     62 C19        87.6208   56.8202   49.4366 a3         1 CLA     -0.280100
     63 C20        87.6143   59.0607   48.2583 a3         1 CLA     -0.280100
     64 NC         76.3728   59.5033   41.7029 nx         1 CLA     -0.309200
     65 MG         77.6502   59.4004   39.9699 mg         1 CLA      0.895000
     66 HMD3       72.4676   57.1345   37.8576 dc         1 CLA      0.064300
     67 HMD2       73.0158   55.3893   37.9930 dc         1 CLA      0.064300
     68 HMD1       72.6881   56.2900   39.4000 dc         1 CLA      0.064300
     69 HMC3       75.8412   61.4729   45.2955 dc         1 CLA      0.052100
     70 HMC2       74.8812   60.1137   45.8605 dc         1 CLA      0.052100
     71 HMC1       76.4672   59.9193   45.8162 dc         1 CLA      0.052100
     72 HMB3       82.9511   61.8336   41.4012 dc         1 CLA      0.063600
     73 HMB2       82.3847   62.7213   40.0086 dc         1 CLA      0.063600
     74 HMB1       82.1747   63.5500   41.6609 dc         1 CLA      0.063600
     75 HMA3       81.9677   57.1301   38.3674 dc         1 CLA      0.058300
     76 HMA2       82.9049   57.6580   36.9991 dc         1 CLA      0.058300
     77 HMA1       82.8953   58.7081   38.4749 dc         1 CLA      0.058300
     78 HED3       78.1983   52.4076   36.8873 dc         1 CLA      0.079300
     79 HED2       78.9894   52.7280   35.4689 dc         1 CLA      0.079300
     80 HED1       79.9260   53.2087   36.8406 dc         1 CLA      0.079300
     81 HBC3       74.2246   56.7337   44.7825 dc         1 CLA      0.016300
     82 HBC2       74.2239   58.2276   45.8284 dc         1 CLA      0.016300
     83 HBC1       72.7202   57.3524   45.4633 dc         1 CLA      0.016300
     84 HBB2       81.3954   63.8437   45.0136 da         1 CLA      0.183000
     85 HBB1       82.2991   62.9738   43.6861 da         1 CLA      0.183000
     86 HBA2       80.5952   59.0497   33.1858 dc         1 CLA      0.029400
     87 HBA1       81.7793   59.0819   34.4506 dc         1 CLA      0.029400
     88 HAC2       72.6759   59.0148   43.7868 dc         1 CLA      0.029300
     89 HAC1       73.1511   57.5125   43.0755 dc         1 CLA      0.029300
     90 HAA2       78.9062   58.0748   34.4342 dc         1 CLA      0.028700
     91 HAA1       79.4062   59.5921   35.1541 dc         1 CLA      0.028700
     92 H203       86.9370   59.5601   48.9357 dc         1 CLA      0.065600
     93 H202       88.6624   59.1312   48.4292 dc         1 CLA      0.065600
     94 H201       87.3256   59.4569   47.2609 dc         1 CLA      0.065600
     95 H193       87.4381   55.7427   49.3660 dc         1 CLA      0.065600
     96 H192       88.7225   56.9365   49.4146 dc         1 CLA      0.065600
     97 H191       87.2480   57.1897   50.3598 dc         1 CLA      0.065600
     98 H172       87.1061   55.7371   47.0368 dc         1 CLA      0.027600
     99 H171       88.4474   56.9734   46.8722 dc         1 CLA      0.027600
    100 H162       87.1926   58.4169   45.3840 dc         1 CLA      0.002900
    101 H161       85.7202   57.4971   45.6794 dc         1 CLA      0.002900
    102 H152       86.7711   55.7059   44.4504 dc         1 CLA      0.029100
    103 H151       88.4418   56.4780   44.5319 dc         1 CLA      0.029100
    104 H143       87.2658   59.3100   43.5548 dc         1 CLA      0.063600
    105 H142       88.6762   58.4214   43.2628 dc         1 CLA      0.063600
    106 H141       87.6300   59.0046   41.9551 dc         1 CLA      0.063600
    107 H122       86.8906   55.3208   42.1350 dc         1 CLA      0.032500
    108 H121       88.3931   56.0706   41.8217 dc         1 CLA      0.032500
    109 H112       87.0189   57.6608   40.2845 dc         1 CLA      0.006600
    110 H111       85.6597   56.5406   40.5904 dc         1 CLA      0.006600
    111 H102       86.9561   54.7389   39.5552 dc         1 CLA      0.024100
    112 H101       88.3461   55.6439   39.4129 dc         1 CLA      0.024100
    113 HHD        73.6509   57.5017   41.0531 da         1 CLA      0.174300
    114 HHC        77.7923   61.4634   43.9664 da         1 CLA      0.136800
    115 HHB        81.7336   60.9012   38.8533 da         1 CLA      0.138300
    116 HBD        77.0887   57.1125   34.9998 dc         1 CLA      0.107700
    117 HAB        79.3327   63.1263   44.2269 da         1 CLA      0.155200
    118 H93        88.5942   56.8531   37.2428 dc         1 CLA      0.069500
    119 H92        87.1763   57.5870   36.5114 dc         1 CLA      0.069500
    120 H91        87.6646   58.1687   38.0035 dc         1 CLA      0.069500
    121 H8         85.7607   56.5109   38.2207 dc         1 CLA      0.029300
    122 H72        86.1574   54.2012   37.5584 dc         1 CLA      0.044400
    123 H71        87.6757   54.5637   36.7346 dc         1 CLA      0.044400
    124 H62        86.8400   55.4746   35.0379 dc         1 CLA      0.015600
    125 H61        85.2400   55.9012   35.6550 dc         1 CLA      0.015600
    126 H52        86.1430   53.0136   35.5537 dc         1 CLA      0.033200
    127 H51        85.7132   53.7271   34.0880 dc         1 CLA      0.033200
    128 H43        83.6312   51.8028   36.5751 dc         1 CLA      0.037000
    129 H42        82.3202   51.9961   35.3933 dc         1 CLA      0.037000
    130 H41        84.1135   51.3588   34.9083 dc         1 CLA      0.037000
    131 H3A        81.4554   59.7640   36.5610 dc         1 CLA      0.041100
    132 H2A        80.4336   57.0124   36.4307 dc         1 CLA      0.083100
    133 H2         83.1940   55.1377   36.3721 da         1 CLA      0.180900
    134 H18        85.9482   57.5530   48.3708 dc         1 CLA     -0.003900
    135 H13        85.9187   57.3640   43.0645 dc         1 CLA      0.019700
    136 H12        81.7218   54.9801   33.8835 dc         1 CLA      0.120400
    137 H11        83.5372   55.0788   33.4554 dc         1 CLA      0.120400
    138 C1         69.3963   61.4506   50.3789 Z1         2 LUT      0.509236
    139 C2         68.2523   61.3704   51.3966 Z2         2 LUT     -0.434695
    140 C3         67.2255   62.5074   51.3628 Z3         2 LUT      0.437453
    141 O3         66.8809   62.7820   52.7182 S1         2 LUT     -0.547129
    142 C4         67.7267   63.7417   50.6528 Z4         2 LUT     -0.468603
    143 C5         68.3559   63.4816   49.2784 Z5         2 LUT      0.279246
    144 C6         69.1444   62.3694   49.1971 Z6         2 LUT     -0.305473
    145 C7         69.7479   61.9815   47.8631 Z7         2 LUT      0.069402
    146 C8         70.6311   62.6373   47.0483 Z8         2 LUT     -0.191631
    147 C9         71.3705   62.2175   45.8555 Z9         2 LUT      0.196698
    148 C10        72.3431   62.9814   45.2716 Y1         2 LUT     -0.208611
    149 C11        73.0883   62.9260   44.0818 Y2         2 LUT      0.030784
    150 C12        74.1646   63.6929   43.7390 Y3         2 LUT     -0.220316
    151 C13        75.0533   63.5628   42.5649 Y4         2 LUT      0.215937
    152 C14        76.2691   64.1844   42.5359 Y5         2 LUT     -0.185793
    153 C15        77.2516   64.2570   41.5021 Y6         2 LUT     -0.057835
    154 C16        69.7869   59.9644   50.0746 Y7         2 LUT     -0.405615
    155 C17        70.5874   62.0837   51.2131 Y7         2 LUT     -0.405615
    156 C18        67.9584   64.4646   48.2121 Y9         2 LUT     -0.369639
    157 C19        70.9339   60.9332   45.2307 W1         2 LUT     -0.333362
    158 C20        74.6618   62.6580   41.4230 W2         2 LUT     -0.323439
    159 C21        88.8204   65.8827   35.5835 Z1         2 LUT      0.406104
    160 C22        89.6351   65.3507   34.3536 Z2         2 LUT     -0.404965
    161 C23        89.8428   66.4944   33.3117 Z3         2 LUT      0.391255
    162 O23        90.7012   66.0186   32.2884 S1         2 LUT     -0.528210
    163 C24        88.4571   67.0616   32.9295 W6         2 LUT     -0.258361
    164 C25        87.4081   66.8548   33.6509 Z5         2 LUT      0.133546
    165 C26        87.3865   66.1030   35.0433 W8         2 LUT     -0.147008
    166 C27        86.4173   66.7086   36.0363 Z7         2 LUT      0.023843
    167 C28        85.3314   66.2161   36.6033 Z8         2 LUT     -0.216987
    168 C29        84.5991   66.7536   37.7083 Z9         2 LUT      0.206524
    169 C30        83.5604   66.0630   38.2835 Y1         2 LUT     -0.215556
    170 C31        82.7453   66.4663   39.3754 Y2         2 LUT      0.025142
    171 C32        81.5690   65.7591   39.6129 Y3         2 LUT     -0.212209
    172 C33        80.6487   65.9590   40.7431 Y4         2 LUT      0.240937
    173 C34        79.5487   65.1606   40.7672 Y5         2 LUT     -0.218862
    174 C35        78.3735   65.0851   41.5974 Y6         2 LUT     -0.023547
    175 C36        89.6012   66.9147   36.4663 Y7         2 LUT     -0.393485
    176 C37        88.7466   64.6811   36.6151 Y7         2 LUT     -0.393485
    177 C38        86.0229   67.4365   33.1581 Y9         2 LUT     -0.387526
    178 C39        85.0241   68.0801   38.2179 W1         2 LUT     -0.322618
    179 C40        81.0216   67.0046   41.7705 W2         2 LUT     -0.358472
    180 H403       82.0647   67.0501   42.0357 R7         2 LUT      0.097720
    181 H402       80.8007   68.0524   41.5811 R7         2 LUT      0.097720
    182 H401       80.4672   66.7589   42.7085 R7         2 LUT      0.097720
    183 H393       85.4577   68.0059   39.2090 R4         2 LUT      0.082505
    184 H392       85.6649   68.6945   37.6142 R4         2 LUT      0.082505
    185 H391       84.1968   68.7309   38.3790 R4         2 LUT      0.082505
    186 H383       85.9613   67.5982   32.0404 R1         2 LUT      0.104030
    187 H382       85.1862   66.7448   33.4042 R1         2 LUT      0.104030
    188 H381       85.7406   68.3156   33.6572 R1         2 LUT      0.104030
    189 H373       89.7576   64.3605   37.0288 T4         2 LUT      0.089537
    190 H372       88.1386   65.0206   37.5040 T4         2 LUT      0.089537
    191 H371       88.1862   63.8478   36.2724 T4         2 LUT      0.089537
    192 H363       89.4744   67.9200   36.0754 T4         2 LUT      0.089537
    193 H362       89.1834   66.9439   37.4491 T4         2 LUT      0.089537
    194 H361       90.5831   66.4772   36.6951 T4         2 LUT      0.089537
    195 H222       90.5239   64.9797   34.7654 U2         2 LUT      0.127376
    196 H221       89.1790   64.4776   33.8643 U2         2 LUT      0.127376
    197 H203       74.0443   61.8150   41.8533 R7         2 LUT      0.087068
    198 H202       74.1100   63.2025   40.6396 R7         2 LUT      0.087068
    199 H201       75.4675   62.2058   40.8667 R7         2 LUT      0.087068
    200 H193       70.9751   60.0890   45.9629 R4         2 LUT      0.089716
    201 H192       69.8314   61.0070   44.8824 R4         2 LUT      0.089716
    202 H191       71.5173   60.6982   44.3709 R4         2 LUT      0.089716
    203 H183       66.9991   64.7974   48.3356 R1         2 LUT      0.094572
    204 H182       68.6044   65.3730   48.2470 R1         2 LUT      0.094572
    205 H181       68.2185   64.0583   47.2375 R1         2 LUT      0.094572
    206 H173       71.4233   62.3213   50.5173 T4         2 LUT      0.093752
    207 H172       70.3077   63.0078   51.6123 T4         2 LUT      0.093752
    208 H171       70.9889   61.4339   51.9973 T4         2 LUT      0.093752
    209 H163       69.8693   59.4603   51.0468 T4         2 LUT      0.093752
    210 H162       69.0507   59.4172   49.3692 T4         2 LUT      0.093752
    211 H161       70.7429   59.9815   49.5732 T4         2 LUT      0.093752
    212 HO3        66.0665   62.3079   52.9625 Q1         2 LUT      0.300121
    213 H8         70.9632   63.5905   47.4171 U7         2 LUT      0.080784
    214 H7         69.5089   60.9746   47.5943 U6         2 LUT      0.042190
    215 H42        66.7892   64.3172   50.5246 U5         2 LUT      0.145166
    216 H41        68.3033   64.4243   51.3319 U5         2 LUT      0.145166
    217 H35        78.4842   65.6888   42.4349 T3         2 LUT      0.077919
    218 H34        79.4703   64.4988   39.8919 T2         2 LUT      0.073626
    219 H32        81.2081   64.9692   38.9230 T1         2 LUT      0.092510
    220 H31        83.1700   67.2056   40.0640 U9         2 LUT      0.070048
    221 H30        83.3511   65.1385   37.8547 U8         2 LUT      0.085442
    222 H3         66.3952   62.1444   50.7869 U3         2 LUT     -0.031596
    223 H28        84.9795   65.2514   36.2269 U7         2 LUT      0.084728
    224 H27        86.8449   67.6791   36.2527 U6         2 LUT      0.087291
    225 H26        87.0040   65.1111   34.7083 Q6         2 LUT      0.075325
    226 H24        88.3115   67.5368   31.9736 Q5         2 LUT      0.094482
    227 H23        90.3371   67.3605   33.7941 U3         2 LUT     -0.024869
    228 H22        67.6493   60.4672   51.1567 U2         2 LUT      0.127376
    229 H21        68.6846   61.3441   52.4311 U2         2 LUT      0.127376
    230 H15        77.3029   63.6411   40.6270 T3         2 LUT      0.093200
    231 H14        76.4495   65.0173   43.2398 T2         2 LUT      0.068865
    232 H12        74.4958   64.4296   44.4965 T1         2 LUT      0.095507
    233 H11        72.7579   62.1655   43.3646 U9         2 LUT      0.068930
    234 H10        72.7153   63.8605   45.8406 U8         2 LUT      0.083911
    235 H1         90.2779   65.6797   31.5523 Q1         2 LUT      0.297311
@<TRIPOS>BOND
    1     6     1 1
    2     7     2 1
    3     8     3 1
    4     9     4 1
    5    11     4 1
    6    12     6 1
    7    13     9 1
    8    16     9 1
    9    25     5 1
   10    25    16 1
   11    26    10 1
   12    26    17 1
   13    27    18 1
   14    28    14 1
   15    28    19 1
   16    29    12 1
   17    30    13 1
   18    31    24 1
   19    32     1 1
   20    32    25 1
   21    33    21 1
   22    33    26 1
   23    34    22 1
   24    34    27 1
   25    35    23 1
   26    35    28 1
   27    36    12 1
   28    36    24 1
   29    37    13 1
   30    37    15 1
   31    38    31 1
   32    39    20 1
   33    39    32 1
   34    40     2 1
   35    40    33 1
   36    41     3 1
   37    41    34 1
   38    42     4 1
   39    42    35 1
   40    43    38 1
   41    44     5 1
   42    44    17 1
   43    44    39 1
   44    45    10 1
   45    45    18 1
   46    45    40 1
   47    46    19 1
   48    46    41 1
   49    47    14 1
   50    47    16 1
   51    47    42 1
   52    48    38 1
   53    49    48 1
   54    50    49 1
   55    51    50 1
   56    52    51 1
   57    53    51 1
   58    54    53 1
   59    55    54 1
   60    56    55 1
   61    57    56 1
   62    58    56 1
   63    59    58 1
   64    60    59 1
   65    61    60 1
   66    62    61 1
   67    63    61 1
   68    64    27 1
   69    64    46 1
   70    65     5 1
   71    65    10 1
   72    65    64 1
   73    65    14 1
   74    66    23 1
   75    67    23 1
   76    68    23 1
   77    69    22 1
   78    70    22 1
   79    71    22 1
   80    72    21 1
   81    73    21 1
   82    74    21 1
   83    75    20 1
   84    76    20 1
   85    77    20 1
   86    78    15 1
   87    79    15 1
   88    80    15 1
   89    81     8 1
   90    82     8 1
   91    83     8 1
   92    84     7 1
   93    85     7 1
   94    86     6 1
   95    87     6 1
   96    88     3 1
   97    89     3 1
   98    90     1 1
   99    91     1 1
  100    92    63 1
  101    93    63 1
  102    94    63 1
  103    95    62 1
  104    96    62 1
  105    97    62 1
  106    98    60 1
  107    99    60 1
  108   100    59 1
  109   101    59 1
  110   102    58 1
  111   103    58 1
  112   104    57 1
  113   105    57 1
  114   106    57 1
  115   107    55 1
  116   108    55 1
  117   109    54 1
  118   110    54 1
  119   111    53 1
  120   112    53 1
  121   113    19 1
  122   114    18 1
  123   115    17 1
  124   116     9 1
  125   117     2 1
  126   118    52 1
  127   119    52 1
  128   120    52 1
  129   121    51 1
  130   122    50 1
  131   123    50 1
  132   124    49 1
  133   125    49 1
  134   126    48 1
  135   127    48 1
  136   128    43 1
  137   129    43 1
  138   130    43 1
  139   131    39 1
  140   132    32 1
  141   133    31 1
  142   134    61 1
  143   135    56 1
  144   136    24 1
  145   137    24 1
  146   139   138 1
  147   140   139 1
  148   141   140 1
  149   142   140 1
  150   143   142 1
  151   144   138 1
  152   144   143 1
  153   145   144 1
  154   146   145 1
  155   147   146 1
  156   148   147 1
  157   149   148 1
  158   150   149 1
  159   151   150 1
  160   152   151 1
  161   153   152 1
  162   154   138 1
  163   155   138 1
  164   156   143 1
  165   157   147 1
  166   158   151 1
  167   160   159 1
  168   161   160 1
  169   162   161 1
  170   163   161 1
  171   164   163 1
  172   165   159 1
  173   165   164 1
  174   166   165 1
  175   167   166 1
  176   168   167 1
  177   169   168 1
  178   170   169 1
  179   171   170 1
  180   172   171 1
  181   173   172 1
  182   174   153 1
  183   174   173 1
  184   175   159 1
  185   176   159 1
  186   177   164 1
  187   178   168 1
  188   179   172 1
  189   180   179 1
  190   181   179 1
  191   182   179 1
  192   183   178 1
  193   184   178 1
  194   185   178 1
  195   186   177 1
  196   187   177 1
  197   188   177 1
  198   189   176 1
  199   190   176 1
  200   191   176 1
  201   192   175 1
  202   193   175 1
  203   194   175 1
  204   195   160 1
  205   196   160 1
  206   197   158 1
  207   198   158 1
  208   199   158 1
  209   200   157 1
  210   201   157 1
  211   202   157 1
  212   203   156 1
  213   204   156 1
  214   205   156 1
  215   206   155 1
  216   207   155 1
  217   208   155 1
  218   209   154 1
  219   210   154 1
  220   211   154 1
  221   212   141 1
  222   213   146 1
  223   214   145 1
  224   215   142 1
  225   216   142 1
  226   217   174 1
  227   218   173 1
  228   219   171 1
  229   220   170 1
  230   221   169 1
  231   222   140 1
  232   223   167 1
  233   224   166 1
  234   225   165 1
  235   226   163 1
  236   227   161 1
  237   228   139 1
  238   229   139 1
  239   230   153 1
  240   231   152 1
  241   232   150 1
  242   233   149 1
  243   234   148 1
  244   235   162 1
  245   65    153 1
  246   65    174 1
@<TRIPOS>SUBSTRUCTURE
      1 CLA               1 ****               0 ****  **** 
      2 LUT             138 ****               0 ****  **** 
