@<TRIPOS>MOLECULE
Cpptraj generated mol2 file.
  235   246     2     0     0
SMALL
USER_CHARGES


@<TRIPOS>ATOM
      1 CAA        77.7198   58.7649   35.0014 a2         1 CLA     -0.055900
      2 CAB        78.5477   62.6416   43.6720 c8         1 CLA     -0.148500
      3 CAC        71.0137   59.3679   43.7291 a2         1 CLA     -0.012600
      4 CAD        73.6737   56.1075   36.7440 ck         1 CLA      0.398800
      5 NA         76.8180   59.3280   38.3761 ns         1 CLA     -0.225500
      6 CBA        78.9984   58.7649   34.0718 a2         1 CLA     -0.135000
      7 CBB        79.8057   62.5798   44.1790 c0         1 CLA     -0.395200
      8 CBC        70.9164   57.8325   43.8523 a3         1 CLA     -0.037700
      9 CBD        75.1116   56.6611   36.2599 a1         1 CLA     -0.053900
     10 NB         76.7877   61.0308   40.8230 nm         1 CLA     -0.295700
     11 OBD        73.0421   55.1815   36.2128 o2         1 CLA     -0.494600
     12 CGA        79.6767   57.4885   33.7158 c4         1 CLA      0.827000
     13 CGD        76.0434   55.4987   36.1282 c4         1 CLA      0.655300
     14 ND         74.0229   58.6416   39.1963 nm         1 CLA     -0.291600
     15 CED        76.6148   53.3603   37.0412 a3         1 CLA      0.005400
     16 CHA        75.5033   57.6734   37.3533 cs         1 CLA     -0.123800
     17 CHB        78.6467   60.8237   39.1209 aa         1 CLA     -0.291900
     18 CHC        75.7383   61.3100   43.0620 aa         1 CLA     -0.090400
     19 CHD        72.2863   58.6124   40.8438 aa         1 CLA     -0.052000
     20 CMA        80.1232   58.4834   37.8028 a3         1 CLA     -0.230700
     21 CMB        80.2075   62.4591   40.9617 a3         1 CLA     -0.180800
     22 CMC        73.4221   60.9599   45.2234 a3         1 CLA     -0.134000
     23 CMD        70.8840   56.5402   39.0032 a3         1 CLA     -0.141100
     24 C1         80.4900   55.3617   34.3462 a2         1 CLA      0.023000
     25 C1A        76.6712   58.3957   37.3968 ac         1 CLA     -0.015100
     26 C1B        78.0197   61.3517   40.3005 cr         1 CLA      0.054700
     27 C1C        74.5180   60.6466   42.8822 cn         1 CLA     -0.005600
     28 C1D        72.7989   58.2195   39.6383 ap         1 CLA     -0.047300
     29 O1A        79.6694   57.1240   32.5458 o2         1 CLA     -0.610800
     30 O1D        76.9800   55.4393   35.3747 o2         1 CLA     -0.558200
     31 C2         80.5252   54.5575   35.6692 c8         1 CLA     -0.325100
     32 C2A        77.9369   58.3288   36.4648 a1         1 CLA      0.098600
     33 C2B        78.8058   62.0641   41.2535 cb         1 CLA      0.088500
     34 C2C        73.3611   60.4612   43.8631 cb         1 CLA      0.053700
     35 C2D        72.1929   57.2055   38.7358 cb         1 CLA      0.058900
     36 O2A        80.1614   56.7603   34.7904 o1         1 CLA     -0.437200
     37 O2D        75.7848   54.5606   37.1447 o1         1 CLA     -0.357600
     38 C3         81.6219   54.2714   36.3925 c5         1 CLA      0.031200
     39 C3A        78.9607   59.2231   37.2034 a1         1 CLA      0.166800
     40 C3B        78.0872   62.1426   42.4514 cb         1 CLA      0.035000
     41 C3C        72.3453   59.7585   43.1238 cb         1 CLA     -0.089900
     42 C3D        73.2709   56.9662   37.8345 cb         1 CLA     -0.035900
     43 C4         82.5604   53.0993   36.1697 a3         1 CLA     -0.053300
     44 C4A        78.0732   59.8289   38.3056 ac         1 CLA      0.001800
     45 C4B        76.7081   61.4869   42.1287 cn         1 CLA     -0.020900
     46 C4C        72.9310   59.4175   41.8325 cr         1 CLA     -0.044400
     47 C4D        74.3579   57.8615   38.1292 c6         1 CLA     -0.046000
     48 C5         81.9251   55.0897   37.6091 a2         1 CLA     -0.070400
     49 C6         83.1378   56.0372   37.5298 a2         1 CLA      0.043900
     50 C7         83.5837   56.4499   39.0215 a2         1 CLA     -0.150000
     51 C8         84.5426   57.6567   38.9597 a1         1 CLA      0.064200
     52 C9         85.8696   57.2453   38.5362 a3         1 CLA     -0.259300
     53 C10        84.6731   58.5086   40.2715 a2         1 CLA     -0.071900
     54 C11        83.3251   59.1822   40.9061 a2         1 CLA      0.014500
     55 C12        83.5353   60.1875   42.0495 a2         1 CLA     -0.112100
     56 C13        84.3078   59.5534   43.2560 a1         1 CLA      0.089200
     57 C14        83.6621   58.3334   44.0232 a3         1 CLA     -0.239100
     58 C15        84.7328   60.7010   44.1801 a2         1 CLA     -0.102200
     59 C16        83.6925   61.4065   45.1474 a2         1 CLA      0.023900
     60 C17        84.2719   62.5867   46.0842 a2         1 CLA     -0.105700
     61 C18        83.1344   63.4114   46.6704 a1         1 CLA      0.206800
     62 C19        82.2507   62.7523   47.7399 a3         1 CLA     -0.280100
     63 C20        83.6682   64.6719   47.3045 a3         1 CLA     -0.280100
     64 NC         74.1666   60.0115   41.6715 nx         1 CLA     -0.309200
     65 MG         75.3360   59.9380   39.9690 mg         1 CLA      0.895000
     66 HMD3       70.0981   57.2170   38.9013 dc         1 CLA      0.064300
     67 HMD2       70.7527   55.8704   38.1383 dc         1 CLA      0.064300
     68 HMD1       70.8490   56.0210   39.9696 dc         1 CLA      0.064300
     69 HMC3       74.5102   61.0616   45.4982 dc         1 CLA      0.052100
     70 HMC2       72.9608   61.9305   45.3496 dc         1 CLA      0.052100
     71 HMC1       72.9374   60.1619   45.8318 dc         1 CLA      0.052100
     72 HMB3       80.3528   63.0831   40.0938 dc         1 CLA      0.063600
     73 HMB2       80.5392   63.0826   41.7425 dc         1 CLA      0.063600
     74 HMB1       80.8823   61.6358   40.9152 dc         1 CLA      0.063600
     75 HMA3       80.7598   59.0859   38.3247 dc         1 CLA      0.058300
     76 HMA2       79.6501   57.8074   38.5583 dc         1 CLA      0.058300
     77 HMA1       80.5667   57.9023   36.9638 dc         1 CLA      0.058300
     78 HED3       76.2795   52.7279   36.2475 dc         1 CLA      0.079300
     79 HED2       77.6813   53.4851   36.8536 dc         1 CLA      0.079300
     80 HED1       76.3922   52.6918   37.8787 dc         1 CLA      0.079300
     81 HBC3       70.5390   57.4381   42.8807 dc         1 CLA      0.016300
     82 HBC2       71.8086   57.3217   44.0779 dc         1 CLA      0.016300
     83 HBC1       70.2920   57.5239   44.7301 dc         1 CLA      0.016300
     84 HBB2       80.0351   62.9487   45.1730 da         1 CLA      0.183000
     85 HBB1       80.6058   62.0279   43.6260 da         1 CLA      0.183000
     86 HBA2       78.6621   59.2858   33.1278 dc         1 CLA      0.029400
     87 HBA1       79.7061   59.3686   34.5692 dc         1 CLA      0.029400
     88 HAC2       71.0048   59.7482   44.7758 dc         1 CLA      0.029300
     89 HAC1       70.1966   59.7951   43.1661 dc         1 CLA      0.029300
     90 HAA2       76.9011   58.2196   34.6011 dc         1 CLA      0.028700
     91 HAA1       77.4731   59.7819   35.0880 dc         1 CLA      0.028700
     92 H203       84.2276   64.3900   48.2021 dc         1 CLA      0.065600
     93 H202       84.3634   65.1117   46.5959 dc         1 CLA      0.065600
     94 H201       82.8735   65.3082   47.5237 dc         1 CLA      0.065600
     95 H193       82.9492   62.3840   48.5174 dc         1 CLA      0.065600
     96 H192       81.3701   63.3579   48.0834 dc         1 CLA      0.065600
     97 H191       81.8024   61.8906   47.2745 dc         1 CLA      0.065600
     98 H172       84.9108   62.1545   46.8607 dc         1 CLA      0.027600
     99 H171       84.8769   63.2005   45.4227 dc         1 CLA      0.027600
    100 H162       82.8821   61.8429   44.5650 dc         1 CLA      0.002900
    101 H161       83.2132   60.6964   45.7844 dc         1 CLA      0.002900
    102 H152       85.5659   60.3025   44.7556 dc         1 CLA      0.029100
    103 H151       85.2492   61.4190   43.5211 dc         1 CLA      0.029100
    104 H143       82.6197   58.6015   44.2964 dc         1 CLA      0.063600
    105 H142       83.6889   57.4629   43.3695 dc         1 CLA      0.063600
    106 H141       84.2801   58.0855   44.8169 dc         1 CLA      0.063600
    107 H122       83.9729   61.1813   41.7914 dc         1 CLA      0.032500
    108 H121       82.5803   60.4015   42.4185 dc         1 CLA      0.032500
    109 H112       82.7020   59.5598   40.1432 dc         1 CLA      0.006600
    110 H111       82.7925   58.3876   41.3896 dc         1 CLA      0.006600
    111 H102       85.0051   57.7571   40.9779 dc         1 CLA      0.024100
    112 H101       85.3241   59.4128   40.2961 dc         1 CLA      0.024100
    113 HHD        71.2472   58.2471   40.9368 da         1 CLA      0.174300
    114 HHC        75.8922   61.6961   44.0627 da         1 CLA      0.136800
    115 HHB        79.7020   61.1039   38.8679 da         1 CLA      0.138300
    116 HBD        74.8579   57.1454   35.3835 dc         1 CLA      0.107700
    117 HAB        77.7490   62.9489   44.3187 da         1 CLA      0.155200
    118 H93        86.1064   56.3343   39.0136 dc         1 CLA      0.069500
    119 H92        85.9477   57.1710   37.4127 dc         1 CLA      0.069500
    120 H91        86.5109   58.0369   38.8530 dc         1 CLA      0.069500
    121 H8         84.1268   58.2898   38.2154 dc         1 CLA      0.029300
    122 H72        82.6835   56.8051   39.5703 dc         1 CLA      0.044400
    123 H71        84.0329   55.5625   39.5604 dc         1 CLA      0.044400
    124 H62        83.9425   55.4468   37.0037 dc         1 CLA      0.015600
    125 H61        82.8504   56.9505   36.9319 dc         1 CLA      0.015600
    126 H52        80.9797   55.5542   37.9781 dc         1 CLA      0.033200
    127 H51        82.2047   54.4620   38.4456 dc         1 CLA      0.033200
    128 H43        83.5775   53.3358   35.7686 dc         1 CLA      0.037000
    129 H42        82.6020   52.4627   37.0872 dc         1 CLA      0.037000
    130 H41        82.0897   52.5065   35.3792 dc         1 CLA      0.037000
    131 H3A        79.3273   60.1031   36.6512 dc         1 CLA      0.041100
    132 H2A        78.2973   57.2756   36.4604 dc         1 CLA      0.083100
    133 H2         79.5515   54.0801   35.8020 da         1 CLA      0.180900
    134 H18        82.5482   63.7001   45.8114 dc         1 CLA     -0.003900
    135 H13        85.2632   59.1844   42.8179 dc         1 CLA      0.019700
    136 H12        79.6168   54.9390   33.7397 dc         1 CLA      0.120400
    137 H11        81.4619   55.1927   33.8901 dc         1 CLA      0.120400
    138 C1         66.7276   63.2178   50.5435 Z1         2 LUT      0.509236
    139 C2         66.5671   64.4818   51.3665 Z2         2 LUT     -0.434695
    140 C3         65.2827   65.2875   51.1823 Z3         2 LUT      0.437453
    141 O3         65.6223   66.6707   51.4573 S1         2 LUT     -0.547129
    142 C4         64.7302   65.1303   49.8108 Z4         2 LUT     -0.468603
    143 C5         65.5614   64.5185   48.7336 Z5         2 LUT      0.279246
    144 C6         66.4544   63.5024   48.9886 Z6         2 LUT     -0.305473
    145 C7         67.3943   62.9899   48.0141 Z7         2 LUT      0.069402
    146 C8         68.3030   63.6322   47.1863 Z8         2 LUT     -0.191631
    147 C9         69.0326   63.0378   46.1192 Z9         2 LUT      0.196698
    148 C10        70.1087   63.7078   45.5579 Y1         2 LUT     -0.208611
    149 C11        70.9913   63.4306   44.4912 Y2         2 LUT      0.030784
    150 C12        71.9184   64.4096   44.0337 Y3         2 LUT     -0.220316
    151 C13        72.7981   64.1283   42.9596 Y4         2 LUT      0.215937
    152 C14        74.0111   64.8276   42.9335 Y5         2 LUT     -0.185793
    153 C15        75.0362   64.7704   41.9566 Y6         2 LUT     -0.057835
    154 C16        65.6744   62.1795   51.0601 Y7         2 LUT     -0.405615
    155 C17        68.1418   62.6839   50.9027 Y7         2 LUT     -0.405615
    156 C18        65.4026   65.2922   47.4183 Y9         2 LUT     -0.369639
    157 C19        68.6766   61.6622   45.7358 W1         2 LUT     -0.333362
    158 C20        72.2409   63.2736   41.8055 W2         2 LUT     -0.323439
    159 C21        86.9924   66.3043   36.0365 Z1         2 LUT      0.406104
    160 C22        87.6198   65.7290   34.7535 Z2         2 LUT     -0.404965
    161 C23        87.5490   66.5681   33.5937 Z3         2 LUT      0.391255
    162 O23        88.1178   65.8823   32.5044 S1         2 LUT     -0.528210
    163 C24        86.1422   67.2245   33.4954 W6         2 LUT     -0.258361
    164 C25        85.2340   67.2580   34.4792 Z5         2 LUT      0.133546
    165 C26        85.4566   66.5491   35.8061 W8         2 LUT     -0.147008
    166 C27        84.5211   67.1101   36.9392 Z7         2 LUT      0.023843
    167 C28        83.5577   66.4285   37.6108 Z8         2 LUT     -0.216987
    168 C29        82.7657   66.8990   38.7261 Z9         2 LUT      0.206524
    169 C30        81.6581   66.2142   39.0428 Y1         2 LUT     -0.215556
    170 C31        80.7559   66.5676   40.1159 Y2         2 LUT      0.025142
    171 C32        79.5074   66.0829   40.2130 Y3         2 LUT     -0.212209
    172 C33        78.5673   66.1598   41.3081 Y4         2 LUT      0.240937
    173 C34        77.4078   65.3672   41.3083 Y5         2 LUT     -0.218862
    174 C35        76.2882   65.4254   42.1771 Y6         2 LUT     -0.023547
    175 C36        87.7757   67.5700   36.2995 Y7         2 LUT     -0.393485
    176 C37        87.1569   65.2328   37.1587 Y7         2 LUT     -0.393485
    177 C38        83.9238   67.9799   34.3559 Y9         2 LUT     -0.387526
    178 C39        83.1592   68.2652   39.2692 W1         2 LUT     -0.322618
    179 C40        78.7442   67.3973   42.1755 W2         2 LUT     -0.358472
    180 H403       77.8994   67.4648   42.9551 R7         2 LUT      0.097720
    181 H402       79.6597   67.4767   42.7660 R7         2 LUT      0.097720
    182 H401       78.7063   68.3230   41.5571 R7         2 LUT      0.097720
    183 H393       82.6582   69.0333   38.6696 R4         2 LUT      0.082505
    184 H392       82.7439   68.4421   40.2888 R4         2 LUT      0.082505
    185 H391       84.2350   68.4119   39.2771 R4         2 LUT      0.082505
    186 H383       83.7577   68.3020   33.3036 R1         2 LUT      0.104030
    187 H382       83.1783   67.2340   34.6498 R1         2 LUT      0.104030
    188 H381       83.9165   68.8849   35.0330 R1         2 LUT      0.104030
    189 H373       88.1639   64.8436   37.1567 T4         2 LUT      0.089537
    190 H372       86.8989   65.5843   38.1210 T4         2 LUT      0.089537
    191 H371       86.4615   64.4279   36.8954 T4         2 LUT      0.089537
    192 H363       87.7394   68.4391   35.6276 T4         2 LUT      0.089537
    193 H362       87.3493   68.0115   37.2444 T4         2 LUT      0.089537
    194 H361       88.8522   67.3845   36.2943 T4         2 LUT      0.089537
    195 H222       88.7309   65.5604   35.0200 U2         2 LUT      0.127376
    196 H221       87.1459   64.8273   34.4455 U2         2 LUT      0.127376
    197 H203       71.3384   63.6456   41.2826 R7         2 LUT      0.087068
    198 H202       73.0479   63.1821   41.0702 R7         2 LUT      0.087068
    199 H201       72.0789   62.3213   42.1743 R7         2 LUT      0.087068
    200 H193       67.6159   61.5244   45.6674 R4         2 LUT      0.089716
    201 H192       69.1968   61.3945   44.8007 R4         2 LUT      0.089716
    202 H191       69.0028   60.9521   46.5031 R4         2 LUT      0.089716
    203 H183       64.4464   65.8560   47.3436 R1         2 LUT      0.094572
    204 H182       66.2978   65.9623   47.4137 R1         2 LUT      0.094572
    205 H181       65.4804   64.5841   46.6102 R1         2 LUT      0.094572
    206 H173       68.4976   62.8785   51.9293 T4         2 LUT      0.093752
    207 H172       68.1329   61.5901   50.6503 T4         2 LUT      0.093752
    208 H171       68.9499   63.1109   50.3579 T4         2 LUT      0.093752
    209 H163       65.8390   61.1857   50.5769 T4         2 LUT      0.093752
    210 H162       65.7392   62.0381   52.1605 T4         2 LUT      0.093752
    211 H161       64.6214   62.5010   50.6894 T4         2 LUT      0.093752
    212 HO3        65.0462   67.1280   52.1025 Q1         2 LUT      0.300121
    213 H8         68.2844   64.6824   47.0097 U7         2 LUT      0.080784
    214 H7         67.3560   61.9282   48.0011 U6         2 LUT      0.042190
    215 H42        63.9031   64.4328   49.8715 U5         2 LUT      0.145166
    216 H41        64.2697   66.0873   49.4910 U5         2 LUT      0.145166
    217 H35        76.3397   66.0668   43.1005 T3         2 LUT      0.077919
    218 H34        77.3348   64.7207   40.4691 T2         2 LUT      0.073626
    219 H32        79.1700   65.2686   39.5059 T1         2 LUT      0.092510
    220 H31        80.9586   67.4253   40.7654 U9         2 LUT      0.070048
    221 H30        81.4447   65.2870   38.5476 U8         2 LUT      0.085442
    222 H3         64.5110   64.9096   51.9425 U3         2 LUT     -0.031596
    223 H28        83.3444   65.4229   37.2789 U7         2 LUT      0.084728
    224 H27        84.6557   68.1288   37.1974 U6         2 LUT      0.087291
    225 H26        84.9516   65.5720   35.6490 Q6         2 LUT      0.075325
    226 H24        85.9877   67.8775   32.6485 Q5         2 LUT      0.094482
    227 H23        88.2117   67.3623   33.7847 U3         2 LUT     -0.024869
    228 H22        66.7649   64.2874   52.3981 U2         2 LUT      0.127376
    229 H21        67.3062   65.1405   50.9882 U2         2 LUT      0.127376
    230 H15        75.0238   64.1264   41.0953 T3         2 LUT      0.093200
    231 H14        74.1585   65.6314   43.6885 T2         2 LUT      0.068865
    232 H12        72.0319   65.2706   44.6850 T1         2 LUT      0.095507
    233 H11        71.0631   62.4063   44.0618 U9         2 LUT      0.068930
    234 H10        70.2477   64.7406   46.0026 U8         2 LUT      0.083911
    235 H1         87.5009   65.4006   31.9956 Q1         2 LUT      0.297311
@<TRIPOS>BOND
    1     6     1 1
    2     7     2 1
    3     8     3 1
    4     9     4 1
    5    11     4 1
    6    12     6 1
    7    13     9 1
    8    16     9 1
    9    25     5 1
   10    25    16 1
   11    26    10 1
   12    26    17 1
   13    27    18 1
   14    28    14 1
   15    28    19 1
   16    29    12 1
   17    30    13 1
   18    31    24 1
   19    32     1 1
   20    32    25 1
   21    33    21 1
   22    33    26 1
   23    34    22 1
   24    34    27 1
   25    35    23 1
   26    35    28 1
   27    36    12 1
   28    36    24 1
   29    37    13 1
   30    37    15 1
   31    38    31 1
   32    39    20 1
   33    39    32 1
   34    40     2 1
   35    40    33 1
   36    41     3 1
   37    41    34 1
   38    42     4 1
   39    42    35 1
   40    43    38 1
   41    44     5 1
   42    44    17 1
   43    44    39 1
   44    45    10 1
   45    45    18 1
   46    45    40 1
   47    46    19 1
   48    46    41 1
   49    47    14 1
   50    47    16 1
   51    47    42 1
   52    48    38 1
   53    49    48 1
   54    50    49 1
   55    51    50 1
   56    52    51 1
   57    53    51 1
   58    54    53 1
   59    55    54 1
   60    56    55 1
   61    57    56 1
   62    58    56 1
   63    59    58 1
   64    60    59 1
   65    61    60 1
   66    62    61 1
   67    63    61 1
   68    64    27 1
   69    64    46 1
   70    65     5 1
   71    65    10 1
   72    65    64 1
   73    65    14 1
   74    66    23 1
   75    67    23 1
   76    68    23 1
   77    69    22 1
   78    70    22 1
   79    71    22 1
   80    72    21 1
   81    73    21 1
   82    74    21 1
   83    75    20 1
   84    76    20 1
   85    77    20 1
   86    78    15 1
   87    79    15 1
   88    80    15 1
   89    81     8 1
   90    82     8 1
   91    83     8 1
   92    84     7 1
   93    85     7 1
   94    86     6 1
   95    87     6 1
   96    88     3 1
   97    89     3 1
   98    90     1 1
   99    91     1 1
  100    92    63 1
  101    93    63 1
  102    94    63 1
  103    95    62 1
  104    96    62 1
  105    97    62 1
  106    98    60 1
  107    99    60 1
  108   100    59 1
  109   101    59 1
  110   102    58 1
  111   103    58 1
  112   104    57 1
  113   105    57 1
  114   106    57 1
  115   107    55 1
  116   108    55 1
  117   109    54 1
  118   110    54 1
  119   111    53 1
  120   112    53 1
  121   113    19 1
  122   114    18 1
  123   115    17 1
  124   116     9 1
  125   117     2 1
  126   118    52 1
  127   119    52 1
  128   120    52 1
  129   121    51 1
  130   122    50 1
  131   123    50 1
  132   124    49 1
  133   125    49 1
  134   126    48 1
  135   127    48 1
  136   128    43 1
  137   129    43 1
  138   130    43 1
  139   131    39 1
  140   132    32 1
  141   133    31 1
  142   134    61 1
  143   135    56 1
  144   136    24 1
  145   137    24 1
  146   139   138 1
  147   140   139 1
  148   141   140 1
  149   142   140 1
  150   143   142 1
  151   144   138 1
  152   144   143 1
  153   145   144 1
  154   146   145 1
  155   147   146 1
  156   148   147 1
  157   149   148 1
  158   150   149 1
  159   151   150 1
  160   152   151 1
  161   153   152 1
  162   154   138 1
  163   155   138 1
  164   156   143 1
  165   157   147 1
  166   158   151 1
  167   160   159 1
  168   161   160 1
  169   162   161 1
  170   163   161 1
  171   164   163 1
  172   165   159 1
  173   165   164 1
  174   166   165 1
  175   167   166 1
  176   168   167 1
  177   169   168 1
  178   170   169 1
  179   171   170 1
  180   172   171 1
  181   173   172 1
  182   174   153 1
  183   174   173 1
  184   175   159 1
  185   176   159 1
  186   177   164 1
  187   178   168 1
  188   179   172 1
  189   180   179 1
  190   181   179 1
  191   182   179 1
  192   183   178 1
  193   184   178 1
  194   185   178 1
  195   186   177 1
  196   187   177 1
  197   188   177 1
  198   189   176 1
  199   190   176 1
  200   191   176 1
  201   192   175 1
  202   193   175 1
  203   194   175 1
  204   195   160 1
  205   196   160 1
  206   197   158 1
  207   198   158 1
  208   199   158 1
  209   200   157 1
  210   201   157 1
  211   202   157 1
  212   203   156 1
  213   204   156 1
  214   205   156 1
  215   206   155 1
  216   207   155 1
  217   208   155 1
  218   209   154 1
  219   210   154 1
  220   211   154 1
  221   212   141 1
  222   213   146 1
  223   214   145 1
  224   215   142 1
  225   216   142 1
  226   217   174 1
  227   218   173 1
  228   219   171 1
  229   220   170 1
  230   221   169 1
  231   222   140 1
  232   223   167 1
  233   224   166 1
  234   225   165 1
  235   226   163 1
  236   227   161 1
  237   228   139 1
  238   229   139 1
  239   230   153 1
  240   231   152 1
  241   232   150 1
  242   233   149 1
  243   234   148 1
  244   235   162 1
  245   65    153 1
  246   65    174 1
@<TRIPOS>SUBSTRUCTURE
      1 CLA               1 ****               0 ****  **** 
      2 LUT             138 ****               0 ****  **** 
