@<TRIPOS>MOLECULE
Cpptraj generated mol2 file.
  235   246     2     0     0
SMALL
USER_CHARGES


@<TRIPOS>ATOM
      1 CAA        79.6509   59.2569   34.3605 a2         1 CLA     -0.055900
      2 CAB        79.2152   62.4970   43.4791 c8         1 CLA     -0.148500
      3 CAC        72.4476   58.4504   42.5769 a2         1 CLA     -0.012600
      4 CAD        75.4123   56.6295   35.1340 ck         1 CLA      0.398800
      5 NA         78.5821   59.3888   37.7792 ns         1 CLA     -0.225500
      6 CBA        80.9589   59.2575   33.6224 a2         1 CLA     -0.135000
      7 CBB        80.2747   62.3092   44.2985 c0         1 CLA     -0.395200
      8 CBC        72.7020   57.0835   43.1493 a3         1 CLA     -0.037700
      9 CBD        76.8718   57.3182   34.9566 a1         1 CLA     -0.053900
     10 NB         78.2625   60.7815   40.3737 nm         1 CLA     -0.295700
     11 OBD        74.8267   55.9140   34.3076 o2         1 CLA     -0.494600
     12 CGA        81.5411   57.9121   33.1063 c4         1 CLA      0.827000
     13 CGD        77.9033   56.1900   34.5801 c4         1 CLA      0.655300
     14 ND         75.7414   58.3832   38.2326 nm         1 CLA     -0.291600
     15 CED        78.8891   54.0779   35.2807 a3         1 CLA      0.005400
     16 CHA        77.2421   57.9775   36.2756 cs         1 CLA     -0.123800
     17 CHB        80.3638   60.6341   39.0121 aa         1 CLA     -0.291900
     18 CHC        76.8297   61.0117   42.3574 aa         1 CLA     -0.090400
     19 CHD        73.8774   58.1190   39.8027 aa         1 CLA     -0.052000
     20 CMA        81.9207   58.5724   37.2409 a3         1 CLA     -0.230700
     21 CMB        81.4991   62.5876   41.1343 a3         1 CLA     -0.180800
     22 CMC        74.3643   60.5020   44.2218 a3         1 CLA     -0.134000
     23 CMD        72.6474   56.3665   37.4083 a3         1 CLA     -0.141100
     24 C1         82.7634   56.0047   33.7411 a2         1 CLA      0.023000
     25 C1A        78.4806   58.5547   36.6686 ac         1 CLA     -0.015100
     26 C1B        79.5770   61.1019   40.0513 cr         1 CLA      0.054700
     27 C1C        75.6921   60.3009   42.0041 cn         1 CLA     -0.005600
     28 C1D        74.5075   57.8681   38.5705 ap         1 CLA     -0.047300
     29 O1A        81.2441   57.3922   32.0231 o2         1 CLA     -0.610800
     30 O1D        78.8486   56.3810   33.7697 o2         1 CLA     -0.558200
     31 C2         83.1187   55.4487   35.1441 c8         1 CLA     -0.325100
     32 C2A        79.7687   58.7457   35.8654 a1         1 CLA      0.098600
     33 C2B        80.1165   62.0150   41.1047 cb         1 CLA      0.088500
     34 C2C        74.5666   59.9477   42.8548 cb         1 CLA      0.053700
     35 C2D        74.0040   57.1237   37.4603 cb         1 CLA      0.058900
     36 O2A        82.2781   57.3333   34.0511 o1         1 CLA     -0.437200
     37 O2D        77.7450   55.0160   35.3157 o1         1 CLA     -0.357600
     38 C3         83.8562   54.3812   35.4131 c5         1 CLA      0.031200
     39 C3A        80.7052   59.4030   36.8035 a1         1 CLA      0.166800
     40 C3B        79.1481   62.0162   42.0968 cb         1 CLA      0.035000
     41 C3C        73.7714   59.0937   42.1080 cb         1 CLA     -0.089900
     42 C3D        75.0129   57.1899   36.4764 cb         1 CLA     -0.035900
     43 C4         83.2511   53.0041   35.4933 a3         1 CLA     -0.053300
     44 C4A        79.8535   59.8725   37.9333 ac         1 CLA      0.001800
     45 C4B        78.0188   61.2731   41.6059 cn         1 CLA     -0.020900
     46 C4C        74.4150   58.9254   40.8032 cr         1 CLA     -0.044400
     47 C4D        76.0340   57.9263   37.0198 c6         1 CLA     -0.046000
     48 C5         85.3191   54.5270   35.6225 a2         1 CLA     -0.070400
     49 C6         85.8311   55.7616   36.3261 a2         1 CLA      0.043900
     50 C7         85.4581   55.6559   37.7647 a2         1 CLA     -0.150000
     51 C8         85.3303   57.0521   38.5314 a1         1 CLA      0.064200
     52 C9         86.6180   57.8270   38.7381 a3         1 CLA     -0.259300
     53 C10        84.6934   56.7822   39.9476 a2         1 CLA     -0.071900
     54 C11        84.2507   58.0229   40.7668 a2         1 CLA      0.014500
     55 C12        83.4277   57.7188   42.0598 a2         1 CLA     -0.112100
     56 C13        83.0248   58.9095   42.9421 a1         1 CLA      0.089200
     57 C14        84.1243   59.9724   43.0570 a3         1 CLA     -0.239100
     58 C15        82.7338   58.3405   44.3971 a2         1 CLA     -0.102200
     59 C16        81.6875   57.2552   44.4980 a2         1 CLA      0.023900
     60 C17        80.2597   57.8739   44.1127 a2         1 CLA     -0.105700
     61 C18        78.9748   57.2415   44.7610 a1         1 CLA      0.206800
     62 C19        77.6837   57.9551   44.2096 a3         1 CLA     -0.280100
     63 C20        78.8444   55.7629   44.5606 a3         1 CLA     -0.280100
     64 NC         75.5980   59.6610   40.7937 nx         1 CLA     -0.309200
     65 MG         76.9463   59.6586   39.1780 mg         1 CLA      0.895000
     66 HMD3       72.2865   56.0729   38.4235 dc         1 CLA      0.064300
     67 HMD2       71.9327   56.9894   37.0005 dc         1 CLA      0.064300
     68 HMD1       72.9166   55.5275   36.7670 dc         1 CLA      0.064300
     69 HMC3       74.6036   61.5648   44.3022 dc         1 CLA      0.052100
     70 HMC2       73.3412   60.4103   44.4071 dc         1 CLA      0.052100
     71 HMC1       74.8762   59.9519   44.9983 dc         1 CLA      0.052100
     72 HMB3       81.5925   63.1028   40.2453 dc         1 CLA      0.063600
     73 HMB2       81.7465   63.2383   41.9551 dc         1 CLA      0.063600
     74 HMB1       82.2365   61.7934   41.2219 dc         1 CLA      0.063600
     75 HMA3       82.5389   58.2982   36.4266 dc         1 CLA      0.058300
     76 HMA2       82.5640   59.1367   38.0368 dc         1 CLA      0.058300
     77 HMA1       81.5954   57.6600   37.6866 dc         1 CLA      0.058300
     78 HED3       79.8536   54.4882   35.6022 dc         1 CLA      0.079300
     79 HED2       78.6492   53.1151   35.9438 dc         1 CLA      0.079300
     80 HED1       79.0067   53.8150   34.1987 dc         1 CLA      0.079300
     81 HBC3       71.8769   56.8377   43.8941 dc         1 CLA      0.016300
     82 HBC2       72.8169   56.3092   42.3625 dc         1 CLA      0.016300
     83 HBC1       73.6787   57.1258   43.6471 dc         1 CLA      0.016300
     84 HBB2       80.3257   62.6606   45.3435 da         1 CLA      0.183000
     85 HBB1       81.1372   61.6315   43.9775 da         1 CLA      0.183000
     86 HBA2       80.5165   59.7547   32.7943 dc         1 CLA      0.029400
     87 HBA1       81.7284   59.8906   34.0538 dc         1 CLA      0.029400
     88 HAC2       72.0686   58.9287   43.4427 dc         1 CLA      0.029300
     89 HAC1       71.7269   58.4414   41.7608 dc         1 CLA      0.029300
     90 HAA2       78.8731   58.7395   33.8192 dc         1 CLA      0.028700
     91 HAA1       79.2729   60.2666   34.5269 dc         1 CLA      0.028700
     92 H203       79.8373   55.4057   44.9189 dc         1 CLA      0.065600
     93 H202       78.0116   55.4937   45.2214 dc         1 CLA      0.065600
     94 H201       78.6438   55.4017   43.6002 dc         1 CLA      0.065600
     95 H193       77.7172   58.1106   43.1463 dc         1 CLA      0.065600
     96 H192       76.7632   57.4559   44.5364 dc         1 CLA      0.065600
     97 H191       77.6155   58.9175   44.6471 dc         1 CLA      0.065600
     98 H172       80.2361   58.9668   44.4324 dc         1 CLA      0.027600
     99 H171       80.2128   58.0375   42.9913 dc         1 CLA      0.027600
    100 H162       81.8676   56.4772   43.7957 dc         1 CLA      0.002900
    101 H161       81.5795   56.9239   45.5453 dc         1 CLA      0.002900
    102 H152       83.6505   57.9120   44.8023 dc         1 CLA      0.029100
    103 H151       82.5932   59.1912   45.0254 dc         1 CLA      0.029100
    104 H143       83.7194   60.8883   43.5834 dc         1 CLA      0.063600
    105 H142       84.9453   59.6801   43.7157 dc         1 CLA      0.063600
    106 H141       84.4523   60.3717   42.1096 dc         1 CLA      0.063600
    107 H122       82.5492   57.1426   41.7396 dc         1 CLA      0.032500
    108 H121       84.0308   56.9839   42.6235 dc         1 CLA      0.032500
    109 H112       85.1283   58.5917   41.0176 dc         1 CLA      0.006600
    110 H111       83.5475   58.6648   40.1649 dc         1 CLA      0.006600
    111 H102       83.8347   56.0993   39.7180 dc         1 CLA      0.024100
    112 H101       85.3247   56.2424   40.6539 dc         1 CLA      0.024100
    113 HHD        72.8117   57.8450   40.0779 da         1 CLA      0.174300
    114 HHC        76.8919   61.1775   43.4487 da         1 CLA      0.136800
    115 HHB        81.4499   60.7863   39.0146 da         1 CLA      0.138300
    116 HBD        76.8118   58.0248   34.2178 dc         1 CLA      0.107700
    117 HAB        78.4212   63.1867   43.7221 da         1 CLA      0.155200
    118 H93        86.4632   58.7732   39.0756 dc         1 CLA      0.069500
    119 H92        87.1412   57.3527   39.5420 dc         1 CLA      0.069500
    120 H91        87.2312   57.7659   37.8237 dc         1 CLA      0.069500
    121 H8         84.7186   57.7220   37.9969 dc         1 CLA      0.029300
    122 H72        84.4382   55.2365   37.7982 dc         1 CLA      0.044400
    123 H71        86.2001   54.9653   38.3178 dc         1 CLA      0.044400
    124 H62        86.9295   55.7274   36.2599 dc         1 CLA      0.015600
    125 H61        85.5823   56.6852   35.8142 dc         1 CLA      0.015600
    126 H52        85.6310   53.6163   36.0884 dc         1 CLA      0.033200
    127 H51        85.7461   54.4035   34.6087 dc         1 CLA      0.033200
    128 H43        82.1921   53.0394   35.2223 dc         1 CLA      0.037000
    129 H42        83.7865   52.2585   34.8097 dc         1 CLA      0.037000
    130 H41        83.2839   52.7021   36.5444 dc         1 CLA      0.037000
    131 H3A        81.1503   60.2528   36.3374 dc         1 CLA      0.041100
    132 H2A        80.1692   57.6563   35.7769 dc         1 CLA      0.083100
    133 H2         82.7413   55.9840   36.0092 da         1 CLA      0.180900
    134 H18        79.0583   57.3794   45.8178 dc         1 CLA     -0.003900
    135 H13        82.1096   59.4092   42.5198 dc         1 CLA      0.019700
    136 H12        82.0206   55.3589   33.3637 dc         1 CLA      0.120400
    137 H11        83.5820   55.9183   33.0848 dc         1 CLA      0.120400
    138 C1         68.9421   61.9357   50.0066 Z1         2 LUT      0.509236
    139 C2         67.5314   61.7037   50.4902 Z2         2 LUT     -0.434695
    140 C3         66.6663   62.9536   50.9021 Z3         2 LUT      0.437453
    141 O3         66.2901   63.0917   52.2608 S1         2 LUT     -0.547129
    142 C4         67.2983   64.2764   50.3710 Z4         2 LUT     -0.468603
    143 C5         68.0016   64.0374   48.9806 Z5         2 LUT      0.279246
    144 C6         68.8681   63.0112   48.8217 Z6         2 LUT     -0.305473
    145 C7         69.3724   62.5174   47.4330 Z7         2 LUT      0.069402
    146 C8         70.3375   63.1832   46.6977 Z8         2 LUT     -0.191631
    147 C9         71.0240   62.8257   45.4586 Z9         2 LUT      0.196698
    148 C10        72.0592   63.5966   44.9363 Y1         2 LUT     -0.208611
    149 C11        72.6188   63.4589   43.6244 Y2         2 LUT      0.030784
    150 C12        73.7228   64.2024   43.4677 Y3         2 LUT     -0.220316
    151 C13        74.7024   64.2007   42.3686 Y4         2 LUT      0.215937
    152 C14        75.9061   64.9337   42.5974 Y5         2 LUT     -0.185793
    153 C15        77.0789   65.1052   41.6976 Y6         2 LUT     -0.057835
    154 C16        69.5599   60.5669   49.6686 Y7         2 LUT     -0.405615
    155 C17        69.6415   62.4518   51.3088 Y7         2 LUT     -0.405615
    156 C18        67.4332   64.9384   47.8737 Y9         2 LUT     -0.369639
    157 C19        70.4855   61.6348   44.6603 W1         2 LUT     -0.333362
    158 C20        74.2777   63.6724   41.0235 W2         2 LUT     -0.323439
    159 C21        88.3168   66.0930   35.2972 Z1         2 LUT      0.406104
    160 C22        88.9220   65.4142   34.0540 Z2         2 LUT     -0.404965
    161 C23        88.9675   66.2131   32.7875 Z3         2 LUT      0.391255
    162 O23        89.2896   65.2074   31.8188 S1         2 LUT     -0.528210
    163 C24        87.6861   66.9580   32.5545 W6         2 LUT     -0.258361
    164 C25        86.7440   67.1660   33.4135 Z5         2 LUT      0.133546
    165 C26        86.8359   66.4979   34.8756 W8         2 LUT     -0.147008
    166 C27        86.1107   67.4436   35.9203 Z7         2 LUT      0.023843
    167 C28        84.8240   67.3490   36.3827 Z8         2 LUT     -0.216987
    168 C29        84.1525   67.7923   37.6117 Z9         2 LUT      0.206524
    169 C30        82.9100   67.2277   37.8549 Y1         2 LUT     -0.215556
    170 C31        82.1847   67.3668   39.0648 Y2         2 LUT      0.025142
    171 C32        81.2351   66.4336   39.4498 Y3         2 LUT     -0.212209
    172 C33        80.3691   66.4860   40.6169 Y4         2 LUT      0.240937
    173 C34        79.2605   65.7208   40.7706 Y5         2 LUT     -0.218862
    174 C35        78.2151   65.8067   41.7257 Y6         2 LUT     -0.023547
    175 C36        89.2848   67.1094   35.7966 Y7         2 LUT     -0.393485
    176 C37        88.2888   65.0094   36.3686 Y7         2 LUT     -0.393485
    177 C38        85.4634   67.8673   32.9392 Y9         2 LUT     -0.387526
    178 C39        84.9538   68.5688   38.6353 W1         2 LUT     -0.322618
    179 C40        80.5709   67.6770   41.4456 W2         2 LUT     -0.358472
    180 H403       79.8453   67.8412   42.2239 R7         2 LUT      0.097720
    181 H402       81.4557   67.6235   42.0583 R7         2 LUT      0.097720
    182 H401       80.4188   68.5113   40.8393 R7         2 LUT      0.097720
    183 H393       84.2452   69.0431   39.4070 R4         2 LUT      0.082505
    184 H392       85.5830   67.9375   39.2893 R4         2 LUT      0.082505
    185 H391       85.6218   69.3619   38.2018 R4         2 LUT      0.082505
    186 H383       84.6405   67.7667   33.6944 R1         2 LUT      0.104030
    187 H382       85.5904   69.0148   32.9008 R1         2 LUT      0.104030
    188 H381       84.8929   67.4549   32.1056 R1         2 LUT      0.104030
    189 H373       87.9156   64.0530   35.9209 T4         2 LUT      0.089537
    190 H372       89.2632   64.8220   36.8587 T4         2 LUT      0.089537
    191 H371       87.5642   65.3907   37.0621 T4         2 LUT      0.089537
    192 H363       89.3808   67.9885   35.1349 T4         2 LUT      0.089537
    193 H362       88.8119   67.5458   36.6785 T4         2 LUT      0.089537
    194 H361       90.3141   66.8315   35.9920 T4         2 LUT      0.089537
    195 H222       89.8146   64.7709   34.2230 U2         2 LUT      0.127376
    196 H221       88.2619   64.5169   33.7323 U2         2 LUT      0.127376
    197 H203       74.3309   62.6265   41.1934 R7         2 LUT      0.087068
    198 H202       73.3380   64.0003   40.5609 R7         2 LUT      0.087068
    199 H201       74.7883   63.9571   40.0890 R7         2 LUT      0.087068
    200 H193       69.6020   61.8611   44.1444 R4         2 LUT      0.089716
    201 H192       71.2912   61.3807   43.9155 R4         2 LUT      0.089716
    202 H191       70.3880   60.7553   45.2420 R4         2 LUT      0.089716
    203 H183       68.1811   65.1270   47.1045 R1         2 LUT      0.094572
    204 H182       66.6318   64.3319   47.4310 R1         2 LUT      0.094572
    205 H181       67.1690   65.9300   48.2515 R1         2 LUT      0.094572
    206 H173       70.6953   62.5762   51.0529 T4         2 LUT      0.093752
    207 H172       69.3509   63.4264   51.6818 T4         2 LUT      0.093752
    208 H171       69.7040   61.7456   52.1358 T4         2 LUT      0.093752
    209 H163       69.0780   59.9661   48.8580 T4         2 LUT      0.093752
    210 H162       70.5770   60.7096   49.3178 T4         2 LUT      0.093752
    211 H161       69.5279   59.9492   50.5641 T4         2 LUT      0.093752
    212 HO3        67.0658   63.0337   52.8031 Q1         2 LUT      0.300121
    213 H8         70.6965   64.1413   47.0874 U7         2 LUT      0.080784
    214 H7         69.0340   61.5288   47.1663 U6         2 LUT      0.042190
    215 H42        66.5922   65.0733   50.3034 U5         2 LUT      0.145166
    216 H41        67.9558   64.8038   51.1047 U5         2 LUT      0.145166
    217 H35        78.2615   66.4471   42.6277 T3         2 LUT      0.077919
    218 H34        79.0920   64.8448   40.1018 T2         2 LUT      0.073626
    219 H32        81.0139   65.6313   38.7229 T1         2 LUT      0.092510
    220 H31        82.4504   68.1108   39.7375 U9         2 LUT      0.070048
    221 H30        82.4139   66.5890   37.1271 U8         2 LUT      0.085442
    222 H3         65.6626   62.9177   50.3763 U3         2 LUT     -0.031596
    223 H28        84.2750   66.7440   35.7679 U7         2 LUT      0.084728
    224 H27        86.7544   67.8447   36.7001 U6         2 LUT      0.087291
    225 H26        86.2661   65.6104   34.7616 Q6         2 LUT      0.075325
    226 H24        87.5286   67.5723   31.7044 Q5         2 LUT      0.094482
    227 H23        89.8303   66.9222   32.7700 U3         2 LUT     -0.024869
    228 H22        66.9065   61.2741   49.6818 U2         2 LUT      0.127376
    229 H21        67.4228   60.9799   51.3272 U2         2 LUT      0.127376
    230 H15        76.9455   64.5739   40.7211 T3         2 LUT      0.093200
    231 H14        75.8622   65.5664   43.5014 T2         2 LUT      0.068865
    232 H12        74.0895   64.7925   44.3757 T1         2 LUT      0.095507
    233 H11        72.2502   62.8481   42.7904 U9         2 LUT      0.068930
    234 H10        72.3803   64.4133   45.5763 U8         2 LUT      0.083911
    235 H1         89.4088   65.6055   30.9469 Q1         2 LUT      0.297311
@<TRIPOS>BOND
    1     6     1 1
    2     7     2 1
    3     8     3 1
    4     9     4 1
    5    11     4 1
    6    12     6 1
    7    13     9 1
    8    16     9 1
    9    25     5 1
   10    25    16 1
   11    26    10 1
   12    26    17 1
   13    27    18 1
   14    28    14 1
   15    28    19 1
   16    29    12 1
   17    30    13 1
   18    31    24 1
   19    32     1 1
   20    32    25 1
   21    33    21 1
   22    33    26 1
   23    34    22 1
   24    34    27 1
   25    35    23 1
   26    35    28 1
   27    36    12 1
   28    36    24 1
   29    37    13 1
   30    37    15 1
   31    38    31 1
   32    39    20 1
   33    39    32 1
   34    40     2 1
   35    40    33 1
   36    41     3 1
   37    41    34 1
   38    42     4 1
   39    42    35 1
   40    43    38 1
   41    44     5 1
   42    44    17 1
   43    44    39 1
   44    45    10 1
   45    45    18 1
   46    45    40 1
   47    46    19 1
   48    46    41 1
   49    47    14 1
   50    47    16 1
   51    47    42 1
   52    48    38 1
   53    49    48 1
   54    50    49 1
   55    51    50 1
   56    52    51 1
   57    53    51 1
   58    54    53 1
   59    55    54 1
   60    56    55 1
   61    57    56 1
   62    58    56 1
   63    59    58 1
   64    60    59 1
   65    61    60 1
   66    62    61 1
   67    63    61 1
   68    64    27 1
   69    64    46 1
   70    65     5 1
   71    65    10 1
   72    65    64 1
   73    65    14 1
   74    66    23 1
   75    67    23 1
   76    68    23 1
   77    69    22 1
   78    70    22 1
   79    71    22 1
   80    72    21 1
   81    73    21 1
   82    74    21 1
   83    75    20 1
   84    76    20 1
   85    77    20 1
   86    78    15 1
   87    79    15 1
   88    80    15 1
   89    81     8 1
   90    82     8 1
   91    83     8 1
   92    84     7 1
   93    85     7 1
   94    86     6 1
   95    87     6 1
   96    88     3 1
   97    89     3 1
   98    90     1 1
   99    91     1 1
  100    92    63 1
  101    93    63 1
  102    94    63 1
  103    95    62 1
  104    96    62 1
  105    97    62 1
  106    98    60 1
  107    99    60 1
  108   100    59 1
  109   101    59 1
  110   102    58 1
  111   103    58 1
  112   104    57 1
  113   105    57 1
  114   106    57 1
  115   107    55 1
  116   108    55 1
  117   109    54 1
  118   110    54 1
  119   111    53 1
  120   112    53 1
  121   113    19 1
  122   114    18 1
  123   115    17 1
  124   116     9 1
  125   117     2 1
  126   118    52 1
  127   119    52 1
  128   120    52 1
  129   121    51 1
  130   122    50 1
  131   123    50 1
  132   124    49 1
  133   125    49 1
  134   126    48 1
  135   127    48 1
  136   128    43 1
  137   129    43 1
  138   130    43 1
  139   131    39 1
  140   132    32 1
  141   133    31 1
  142   134    61 1
  143   135    56 1
  144   136    24 1
  145   137    24 1
  146   139   138 1
  147   140   139 1
  148   141   140 1
  149   142   140 1
  150   143   142 1
  151   144   138 1
  152   144   143 1
  153   145   144 1
  154   146   145 1
  155   147   146 1
  156   148   147 1
  157   149   148 1
  158   150   149 1
  159   151   150 1
  160   152   151 1
  161   153   152 1
  162   154   138 1
  163   155   138 1
  164   156   143 1
  165   157   147 1
  166   158   151 1
  167   160   159 1
  168   161   160 1
  169   162   161 1
  170   163   161 1
  171   164   163 1
  172   165   159 1
  173   165   164 1
  174   166   165 1
  175   167   166 1
  176   168   167 1
  177   169   168 1
  178   170   169 1
  179   171   170 1
  180   172   171 1
  181   173   172 1
  182   174   153 1
  183   174   173 1
  184   175   159 1
  185   176   159 1
  186   177   164 1
  187   178   168 1
  188   179   172 1
  189   180   179 1
  190   181   179 1
  191   182   179 1
  192   183   178 1
  193   184   178 1
  194   185   178 1
  195   186   177 1
  196   187   177 1
  197   188   177 1
  198   189   176 1
  199   190   176 1
  200   191   176 1
  201   192   175 1
  202   193   175 1
  203   194   175 1
  204   195   160 1
  205   196   160 1
  206   197   158 1
  207   198   158 1
  208   199   158 1
  209   200   157 1
  210   201   157 1
  211   202   157 1
  212   203   156 1
  213   204   156 1
  214   205   156 1
  215   206   155 1
  216   207   155 1
  217   208   155 1
  218   209   154 1
  219   210   154 1
  220   211   154 1
  221   212   141 1
  222   213   146 1
  223   214   145 1
  224   215   142 1
  225   216   142 1
  226   217   174 1
  227   218   173 1
  228   219   171 1
  229   220   170 1
  230   221   169 1
  231   222   140 1
  232   223   167 1
  233   224   166 1
  234   225   165 1
  235   226   163 1
  236   227   161 1
  237   228   139 1
  238   229   139 1
  239   230   153 1
  240   231   152 1
  241   232   150 1
  242   233   149 1
  243   234   148 1
  244   235   162 1
  245   65    153 1
  246   65    174 1
@<TRIPOS>SUBSTRUCTURE
      1 CLA               1 ****               0 ****  **** 
      2 LUT             138 ****               0 ****  **** 
