@<TRIPOS>MOLECULE
Cpptraj generated mol2 file.
  235   246     2     0     0
SMALL
USER_CHARGES


@<TRIPOS>ATOM
      1 CAA        78.1520   59.5707   34.6479 a2         1 CLA     -0.055900
      2 CAB        77.9972   63.3238   43.6194 c8         1 CLA     -0.148500
      3 CAC        71.4740   58.6415   43.3412 a2         1 CLA     -0.012600
      4 CAD        74.1273   56.4916   36.1460 ck         1 CLA      0.398800
      5 NA         77.0186   59.9463   38.0294 ns         1 CLA     -0.225500
      6 CBA        79.3049   59.3269   33.7326 a2         1 CLA     -0.135000
      7 CBB        79.0629   63.2034   44.4916 c0         1 CLA     -0.395200
      8 CBC        71.5973   57.1144   43.5504 a3         1 CLA     -0.037700
      9 CBD        75.5323   57.0793   35.7972 a1         1 CLA     -0.053900
     10 NB         76.8116   61.4085   40.7183 nm         1 CLA     -0.295700
     11 OBD        73.5736   55.5667   35.5712 o2         1 CLA     -0.494600
     12 CGA        79.7069   57.9105   33.4514 c4         1 CLA      0.827000
     13 CGD        76.5782   55.9442   35.8897 c4         1 CLA      0.655300
     14 ND         74.2980   58.7869   38.7895 nm         1 CLA     -0.291600
     15 CED        77.2500   53.9051   37.1218 a3         1 CLA      0.005400
     16 CHA        75.7769   58.2494   36.7345 cs         1 CLA     -0.123800
     17 CHB        78.7533   61.2549   39.1191 aa         1 CLA     -0.291900
     18 CHC        75.4438   61.6560   42.7382 aa         1 CLA     -0.090400
     19 CHD        72.5910   58.4791   40.5001 aa         1 CLA     -0.052000
     20 CMA        80.3274   58.9514   37.5722 a3         1 CLA     -0.230700
     21 CMB        79.9386   63.2229   41.1743 a3         1 CLA     -0.180800
     22 CMC        73.6236   60.4268   45.0166 a3         1 CLA     -0.134000
     23 CMD        71.3712   56.5048   38.1997 a3         1 CLA     -0.141100
     24 C1         80.5493   55.8262   34.3109 a2         1 CLA      0.023000
     25 C1A        76.8616   59.1270   36.8880 ac         1 CLA     -0.015100
     26 C1B        78.1065   61.6859   40.3345 cr         1 CLA      0.054700
     27 C1C        74.5111   60.6648   42.5278 cn         1 CLA     -0.005600
     28 C1D        73.1177   58.1713   39.2732 ap         1 CLA     -0.047300
     29 O1A        79.6565   57.3964   32.3554 o2         1 CLA     -0.610800
     30 O1D        77.3360   55.5906   35.0029 o2         1 CLA     -0.558200
     31 C2         81.0120   54.9597   35.4095 c8         1 CLA     -0.325100
     32 C2A        78.1829   59.0094   36.1176 a1         1 CLA      0.098600
     33 C2B        78.6565   62.6145   41.2450 cb         1 CLA      0.088500
     34 C2C        73.5981   60.1864   43.5430 cb         1 CLA      0.053700
     35 C2D        72.6726   57.2488   38.2775 cb         1 CLA      0.058900
     36 O2A        80.3333   57.3166   34.5332 o1         1 CLA     -0.437200
     37 O2D        76.4516   55.1724   37.0243 o1         1 CLA     -0.357600
     38 C3         82.2641   54.7929   35.8942 c5         1 CLA      0.031200
     39 C3A        79.2414   59.8710   37.0300 a1         1 CLA      0.166800
     40 C3B        77.7535   62.6562   42.3461 cb         1 CLA      0.035000
     41 C3C        72.7479   59.3292   42.8328 cb         1 CLA     -0.089900
     42 C3D        73.7050   57.2198   37.2936 cb         1 CLA     -0.035900
     43 C4         83.2592   53.8838   35.2557 a3         1 CLA     -0.053300
     44 C4A        78.2818   60.4706   38.1012 ac         1 CLA      0.001800
     45 C4B        76.5791   61.9806   41.9119 cn         1 CLA     -0.020900
     46 C4C        73.1233   59.3480   41.4088 cr         1 CLA     -0.044400
     47 C4D        74.6599   58.1727   37.6029 c6         1 CLA     -0.046000
     48 C5         82.5858   55.5266   37.2179 a2         1 CLA     -0.070400
     49 C6         83.6520   56.6233   37.3058 a2         1 CLA      0.043900
     50 C7         83.7613   57.1815   38.7567 a2         1 CLA     -0.150000
     51 C8         84.6006   58.5482   38.8767 a1         1 CLA      0.064200
     52 C9         86.0635   58.3223   38.3357 a3         1 CLA     -0.259300
     53 C10        84.6736   59.1326   40.3262 a2         1 CLA     -0.071900
     54 C11        83.2394   59.2662   40.9794 a2         1 CLA      0.014500
     55 C12        83.3185   60.3756   42.0445 a2         1 CLA     -0.112100
     56 C13        84.2096   60.0746   43.2347 a1         1 CLA      0.089200
     57 C14        83.7041   58.7428   43.9623 a3         1 CLA     -0.239100
     58 C15        84.4283   61.3276   44.1626 a2         1 CLA     -0.102200
     59 C16        83.1908   61.9259   44.7990 a2         1 CLA      0.023900
     60 C17        83.5509   62.9359   45.8544 a2         1 CLA     -0.105700
     61 C18        82.4517   63.7244   46.6194 a1         1 CLA      0.206800
     62 C19        81.5593   62.7537   47.4555 a3         1 CLA     -0.280100
     63 C20        82.8440   64.9051   47.4325 a3         1 CLA     -0.280100
     64 NC         74.3107   60.0212   41.3052 nx         1 CLA     -0.309200
     65 MG         75.5206   60.2718   39.6405 mg         1 CLA      0.895000
     66 HMD3       70.7116   57.2714   37.8193 dc         1 CLA      0.064300
     67 HMD2       71.2879   55.7261   37.5116 dc         1 CLA      0.064300
     68 HMD1       71.0819   56.2001   39.2220 dc         1 CLA      0.064300
     69 HMC3       72.6683   60.8312   45.1987 dc         1 CLA      0.052100
     70 HMC2       73.6619   59.4134   45.5574 dc         1 CLA      0.052100
     71 HMC1       74.5409   61.0431   45.2645 dc         1 CLA      0.052100
     72 HMB3       80.7714   62.5172   41.3592 dc         1 CLA      0.063600
     73 HMB2       80.0050   63.5666   40.1866 dc         1 CLA      0.063600
     74 HMB1       79.9586   64.0881   41.8702 dc         1 CLA      0.063600
     75 HMA3       80.9854   59.4458   38.2485 dc         1 CLA      0.058300
     76 HMA2       79.9126   58.0350   38.0455 dc         1 CLA      0.058300
     77 HMA1       80.9468   58.6030   36.7204 dc         1 CLA      0.058300
     78 HED3       76.8389   53.1610   36.4409 dc         1 CLA      0.079300
     79 HED2       78.3628   54.1151   36.9292 dc         1 CLA      0.079300
     80 HED1       77.2193   53.4968   38.1267 dc         1 CLA      0.079300
     81 HBC3       71.8376   56.7847   42.5263 dc         1 CLA      0.016300
     82 HBC2       72.3864   56.7634   44.2904 dc         1 CLA      0.016300
     83 HBC1       70.5931   56.7507   43.7894 dc         1 CLA      0.016300
     84 HBB2       79.1264   63.5599   45.5164 da         1 CLA      0.183000
     85 HBB1       79.9375   62.5278   44.1928 da         1 CLA      0.183000
     86 HBA2       79.1238   59.8505   32.7623 dc         1 CLA      0.029400
     87 HBA1       80.0675   59.8500   34.2470 dc         1 CLA      0.029400
     88 HAC2       71.2027   59.0378   44.2943 dc         1 CLA      0.029300
     89 HAC1       70.6857   58.7602   42.6198 dc         1 CLA      0.029300
     90 HAA2       77.3375   59.0942   34.2025 dc         1 CLA      0.028700
     91 HAA1       77.7405   60.5556   34.6156 dc         1 CLA      0.028700
     92 H203       83.4768   64.6903   48.2434 dc         1 CLA      0.065600
     93 H202       83.3787   65.6434   46.8009 dc         1 CLA      0.065600
     94 H201       81.9926   65.4121   47.9073 dc         1 CLA      0.065600
     95 H193       82.0530   62.4294   48.3909 dc         1 CLA      0.065600
     96 H192       80.6457   63.1596   47.7126 dc         1 CLA      0.065600
     97 H191       81.2588   61.8686   46.9061 dc         1 CLA      0.065600
     98 H172       84.1524   62.4592   46.6221 dc         1 CLA      0.027600
     99 H171       84.1826   63.6370   45.3360 dc         1 CLA      0.027600
    100 H162       82.6159   62.5240   44.1070 dc         1 CLA      0.002900
    101 H161       82.5575   61.1194   45.2752 dc         1 CLA      0.002900
    102 H152       85.0286   60.8774   44.9830 dc         1 CLA      0.029100
    103 H151       85.0214   62.1263   43.6733 dc         1 CLA      0.029100
    104 H143       82.6427   58.8080   44.0687 dc         1 CLA      0.063600
    105 H142       84.0327   57.8742   43.2849 dc         1 CLA      0.063600
    106 H141       84.2380   58.6386   44.8673 dc         1 CLA      0.063600
    107 H122       83.5446   61.3102   41.5448 dc         1 CLA      0.032500
    108 H121       82.3650   60.5786   42.4683 dc         1 CLA      0.032500
    109 H112       82.5378   59.6472   40.2225 dc         1 CLA      0.006600
    110 H111       82.9640   58.3178   41.3651 dc         1 CLA      0.006600
    111 H102       85.3511   58.5781   40.9510 dc         1 CLA      0.024100
    112 H101       85.1412   60.1296   40.2236 dc         1 CLA      0.024100
    113 HHD        71.7509   57.8076   40.8076 da         1 CLA      0.174300
    114 HHC        75.6114   62.0365   43.7000 da         1 CLA      0.136800
    115 HHB        79.7742   61.5721   38.8164 da         1 CLA      0.138300
    116 HBD        75.4281   57.4094   34.7823 dc         1 CLA      0.107700
    117 HAB        77.1842   63.9767   43.9462 da         1 CLA      0.155200
    118 H93        86.4510   57.4319   38.7994 dc         1 CLA      0.069500
    119 H92        86.1188   58.1968   37.2500 dc         1 CLA      0.069500
    120 H91        86.6717   59.2079   38.5951 dc         1 CLA      0.069500
    121 H8         84.1701   59.3386   38.2962 dc         1 CLA      0.029300
    122 H72        82.7939   57.6046   39.0305 dc         1 CLA      0.044400
    123 H71        84.1386   56.3505   39.3223 dc         1 CLA      0.044400
    124 H62        84.6076   56.0601   37.1192 dc         1 CLA      0.015600
    125 H61        83.4297   57.3787   36.5583 dc         1 CLA      0.015600
    126 H52        81.6013   56.0025   37.3972 dc         1 CLA      0.033200
    127 H51        82.8202   54.7245   37.9558 dc         1 CLA      0.033200
    128 H43        84.1052   54.5301   34.9955 dc         1 CLA      0.037000
    129 H42        83.5711   53.1431   35.9395 dc         1 CLA      0.037000
    130 H41        82.7931   53.3958   34.3717 dc         1 CLA      0.037000
    131 H3A        79.6213   60.7325   36.5130 dc         1 CLA      0.041100
    132 H2A        78.5411   57.9766   36.0053 dc         1 CLA      0.083100
    133 H2         80.2977   54.1596   35.7267 da         1 CLA      0.180900
    134 H18        81.8019   64.0899   45.8658 dc         1 CLA     -0.003900
    135 H13        85.2291   59.9298   42.9915 dc         1 CLA      0.019700
    136 H12        79.6746   55.4209   33.8233 dc         1 CLA      0.120400
    137 H11        81.2723   55.5471   33.5172 dc         1 CLA      0.120400
    138 C1         67.0429   63.1471   51.1014 Z1         2 LUT      0.509236
    139 C2         66.9595   64.5633   51.6662 Z2         2 LUT     -0.434695
    140 C3         65.5935   65.2048   51.5617 Z3         2 LUT      0.437453
    141 O3         65.7708   66.6225   51.8946 S1         2 LUT     -0.547129
    142 C4         64.9931   65.0888   50.1280 Z4         2 LUT     -0.468603
    143 C5         65.8844   64.2913   49.1452 Z5         2 LUT      0.279246
    144 C6         66.8100   63.3188   49.5811 Z6         2 LUT     -0.305473
    145 C7         67.6369   62.5884   48.6198 Z7         2 LUT      0.069402
    146 C8         68.3325   63.2115   47.5944 Z8         2 LUT     -0.191631
    147 C9         69.0499   62.6369   46.4770 Z9         2 LUT      0.196698
    148 C10        69.9190   63.4485   45.7957 Y1         2 LUT     -0.208611
    149 C11        70.7124   63.2486   44.6499 Y2         2 LUT      0.030784
    150 C12        71.6435   64.2297   44.2053 Y3         2 LUT     -0.220316
    151 C13        72.5185   63.9761   43.0901 Y4         2 LUT      0.215937
    152 C14        73.5685   64.8904   42.8568 Y5         2 LUT     -0.185793
    153 C15        74.5844   64.8144   41.8900 Y6         2 LUT     -0.057835
    154 C16        65.8314   62.3694   51.6640 Y7         2 LUT     -0.405615
    155 C17        68.3402   62.5838   51.6088 Y7         2 LUT     -0.405615
    156 C18        65.5076   64.8390   47.6981 Y9         2 LUT     -0.369639
    157 C19        68.8305   61.1978   46.0815 W1         2 LUT     -0.333362
    158 C20        71.9520   63.1625   41.9547 W2         2 LUT     -0.323439
    159 C21        86.3170   66.3510   36.2161 Z1         2 LUT      0.406104
    160 C22        87.0924   65.9845   34.9409 Z2         2 LUT     -0.404965
    161 C23        87.1671   66.9211   33.8110 Z3         2 LUT      0.391255
    162 O23        87.8662   66.2161   32.7995 S1         2 LUT     -0.528210
    163 C24        85.7444   67.5325   33.5724 W6         2 LUT     -0.258361
    164 C25        84.6855   67.3847   34.3703 Z5         2 LUT      0.133546
    165 C26        84.7318   66.6813   35.7563 W8         2 LUT     -0.147008
    166 C27        83.9363   67.3573   36.7840 Z7         2 LUT      0.023843
    167 C28        82.8383   66.8514   37.4463 Z8         2 LUT     -0.216987
    168 C29        82.0610   67.4982   38.4867 Z9         2 LUT      0.206524
    169 C30        80.9357   66.7808   38.9626 Y1         2 LUT     -0.215556
    170 C31        80.0912   66.9481   40.1884 Y2         2 LUT      0.025142
    171 C32        78.9206   66.3177   40.3574 Y3         2 LUT     -0.212209
    172 C33        77.9353   66.4177   41.3872 Y4         2 LUT      0.240937
    173 C34        76.8799   65.5892   41.2198 Y5         2 LUT     -0.218862
    174 C35        75.6959   65.5907   42.0481 Y6         2 LUT     -0.023547
    175 C36        87.0376   67.4433   36.8960 Y7         2 LUT     -0.393485
    176 C37        86.5480   65.1177   37.1684 Y7         2 LUT     -0.393485
    177 C38        83.2836   67.8216   34.0081 Y9         2 LUT     -0.387526
    178 C39        82.7360   68.6730   39.1897 W1         2 LUT     -0.322618
    179 C40        78.5121   66.7306   42.7457 W2         2 LUT     -0.358472
    180 H403       78.7482   67.7976   42.7291 R7         2 LUT      0.097720
    181 H402       77.7929   66.4948   43.5658 R7         2 LUT      0.097720
    182 H401       79.4794   66.2485   42.8864 R7         2 LUT      0.097720
    183 H393       83.4216   68.4960   39.9556 R4         2 LUT      0.082505
    184 H392       83.1874   69.3756   38.5396 R4         2 LUT      0.082505
    185 H391       81.9898   69.2589   39.7458 R4         2 LUT      0.082505
    186 H383       82.5397   67.0204   34.2836 R1         2 LUT      0.104030
    187 H382       82.9346   68.6862   34.6241 R1         2 LUT      0.104030
    188 H381       83.2155   68.0234   32.9553 R1         2 LUT      0.104030
    189 H373       87.5847   64.9505   37.3824 T4         2 LUT      0.089537
    190 H372       86.0148   65.2326   38.1157 T4         2 LUT      0.089537
    191 H371       86.2366   64.2688   36.5904 T4         2 LUT      0.089537
    192 H363       87.0050   68.4167   36.2477 T4         2 LUT      0.089537
    193 H362       86.6205   67.5722   37.8486 T4         2 LUT      0.089537
    194 H361       88.0964   67.1938   37.0510 T4         2 LUT      0.089537
    195 H222       88.1147   65.5192   35.0836 U2         2 LUT      0.127376
    196 H221       86.6731   65.1178   34.5095 U2         2 LUT      0.127376
    197 H203       71.8975   63.6875   41.0027 R7         2 LUT      0.087068
    198 H202       72.6869   62.3080   41.8767 R7         2 LUT      0.087068
    199 H201       70.9506   62.8057   42.1425 R7         2 LUT      0.087068
    200 H193       69.4980   60.5703   46.5695 R4         2 LUT      0.089716
    201 H192       67.8938   60.8188   46.3081 R4         2 LUT      0.089716
    202 H191       69.0421   61.0016   45.0295 R4         2 LUT      0.089716
    203 H183       64.3781   64.8244   47.6954 R1         2 LUT      0.094572
    204 H182       65.8470   65.8249   47.5204 R1         2 LUT      0.094572
    205 H181       65.8329   64.1522   46.9370 R1         2 LUT      0.094572
    206 H173       68.3406   62.7225   52.7456 T4         2 LUT      0.093752
    207 H172       68.5275   61.5398   51.3370 T4         2 LUT      0.093752
    208 H171       69.0797   63.2812   51.1755 T4         2 LUT      0.093752
    209 H163       65.8991   61.2624   51.4183 T4         2 LUT      0.093752
    210 H162       65.7719   62.4663   52.7616 T4         2 LUT      0.093752
    211 H161       64.9426   62.6955   51.1569 T4         2 LUT      0.093752
    212 HO3        64.9866   66.9282   52.3301 Q1         2 LUT      0.300121
    213 H8         68.2553   64.3111   47.5667 U7         2 LUT      0.080784
    214 H7         67.6933   61.4931   48.7594 U6         2 LUT      0.042190
    215 H42        64.0067   64.7964   50.1080 U5         2 LUT      0.145166
    216 H41        64.9116   66.1053   49.6775 U5         2 LUT      0.145166
    217 H35        75.7502   66.1096   42.9986 T3         2 LUT      0.077919
    218 H34        76.8633   64.9414   40.3841 T2         2 LUT      0.073626
    219 H32        78.6518   65.6183   39.6078 T1         2 LUT      0.092510
    220 H31        80.3921   67.6609   40.9840 U9         2 LUT      0.070048
    221 H30        80.6330   66.0457   38.2353 U8         2 LUT      0.085442
    222 H3         64.8469   64.6839   52.1690 U3         2 LUT     -0.031596
    223 H28        82.5552   65.8443   37.2493 U7         2 LUT      0.084728
    224 H27        84.2013   68.3521   36.8917 U6         2 LUT      0.087291
    225 H26        84.2377   65.6561   35.7360 Q6         2 LUT      0.075325
    226 H24        85.6552   68.0888   32.6049 Q5         2 LUT      0.094482
    227 H23        87.7762   67.7988   34.0729 U3         2 LUT     -0.024869
    228 H22        67.2045   64.5663   52.7374 U2         2 LUT      0.127376
    229 H21        67.6594   65.2232   51.1394 U2         2 LUT      0.127376
    230 H15        74.5980   64.1241   41.0764 T3         2 LUT      0.093200
    231 H14        73.6758   65.6120   43.6021 T2         2 LUT      0.068865
    232 H12        71.6718   65.2332   44.7079 T1         2 LUT      0.095507
    233 H11        70.7268   62.2543   44.1706 U9         2 LUT      0.068930
    234 H10        69.9425   64.4487   46.1921 U8         2 LUT      0.083911
    235 H1         87.2632   65.8129   32.1838 Q1         2 LUT      0.297311
@<TRIPOS>BOND
    1     6     1 1
    2     7     2 1
    3     8     3 1
    4     9     4 1
    5    11     4 1
    6    12     6 1
    7    13     9 1
    8    16     9 1
    9    25     5 1
   10    25    16 1
   11    26    10 1
   12    26    17 1
   13    27    18 1
   14    28    14 1
   15    28    19 1
   16    29    12 1
   17    30    13 1
   18    31    24 1
   19    32     1 1
   20    32    25 1
   21    33    21 1
   22    33    26 1
   23    34    22 1
   24    34    27 1
   25    35    23 1
   26    35    28 1
   27    36    12 1
   28    36    24 1
   29    37    13 1
   30    37    15 1
   31    38    31 1
   32    39    20 1
   33    39    32 1
   34    40     2 1
   35    40    33 1
   36    41     3 1
   37    41    34 1
   38    42     4 1
   39    42    35 1
   40    43    38 1
   41    44     5 1
   42    44    17 1
   43    44    39 1
   44    45    10 1
   45    45    18 1
   46    45    40 1
   47    46    19 1
   48    46    41 1
   49    47    14 1
   50    47    16 1
   51    47    42 1
   52    48    38 1
   53    49    48 1
   54    50    49 1
   55    51    50 1
   56    52    51 1
   57    53    51 1
   58    54    53 1
   59    55    54 1
   60    56    55 1
   61    57    56 1
   62    58    56 1
   63    59    58 1
   64    60    59 1
   65    61    60 1
   66    62    61 1
   67    63    61 1
   68    64    27 1
   69    64    46 1
   70    65     5 1
   71    65    10 1
   72    65    64 1
   73    65    14 1
   74    66    23 1
   75    67    23 1
   76    68    23 1
   77    69    22 1
   78    70    22 1
   79    71    22 1
   80    72    21 1
   81    73    21 1
   82    74    21 1
   83    75    20 1
   84    76    20 1
   85    77    20 1
   86    78    15 1
   87    79    15 1
   88    80    15 1
   89    81     8 1
   90    82     8 1
   91    83     8 1
   92    84     7 1
   93    85     7 1
   94    86     6 1
   95    87     6 1
   96    88     3 1
   97    89     3 1
   98    90     1 1
   99    91     1 1
  100    92    63 1
  101    93    63 1
  102    94    63 1
  103    95    62 1
  104    96    62 1
  105    97    62 1
  106    98    60 1
  107    99    60 1
  108   100    59 1
  109   101    59 1
  110   102    58 1
  111   103    58 1
  112   104    57 1
  113   105    57 1
  114   106    57 1
  115   107    55 1
  116   108    55 1
  117   109    54 1
  118   110    54 1
  119   111    53 1
  120   112    53 1
  121   113    19 1
  122   114    18 1
  123   115    17 1
  124   116     9 1
  125   117     2 1
  126   118    52 1
  127   119    52 1
  128   120    52 1
  129   121    51 1
  130   122    50 1
  131   123    50 1
  132   124    49 1
  133   125    49 1
  134   126    48 1
  135   127    48 1
  136   128    43 1
  137   129    43 1
  138   130    43 1
  139   131    39 1
  140   132    32 1
  141   133    31 1
  142   134    61 1
  143   135    56 1
  144   136    24 1
  145   137    24 1
  146   139   138 1
  147   140   139 1
  148   141   140 1
  149   142   140 1
  150   143   142 1
  151   144   138 1
  152   144   143 1
  153   145   144 1
  154   146   145 1
  155   147   146 1
  156   148   147 1
  157   149   148 1
  158   150   149 1
  159   151   150 1
  160   152   151 1
  161   153   152 1
  162   154   138 1
  163   155   138 1
  164   156   143 1
  165   157   147 1
  166   158   151 1
  167   160   159 1
  168   161   160 1
  169   162   161 1
  170   163   161 1
  171   164   163 1
  172   165   159 1
  173   165   164 1
  174   166   165 1
  175   167   166 1
  176   168   167 1
  177   169   168 1
  178   170   169 1
  179   171   170 1
  180   172   171 1
  181   173   172 1
  182   174   153 1
  183   174   173 1
  184   175   159 1
  185   176   159 1
  186   177   164 1
  187   178   168 1
  188   179   172 1
  189   180   179 1
  190   181   179 1
  191   182   179 1
  192   183   178 1
  193   184   178 1
  194   185   178 1
  195   186   177 1
  196   187   177 1
  197   188   177 1
  198   189   176 1
  199   190   176 1
  200   191   176 1
  201   192   175 1
  202   193   175 1
  203   194   175 1
  204   195   160 1
  205   196   160 1
  206   197   158 1
  207   198   158 1
  208   199   158 1
  209   200   157 1
  210   201   157 1
  211   202   157 1
  212   203   156 1
  213   204   156 1
  214   205   156 1
  215   206   155 1
  216   207   155 1
  217   208   155 1
  218   209   154 1
  219   210   154 1
  220   211   154 1
  221   212   141 1
  222   213   146 1
  223   214   145 1
  224   215   142 1
  225   216   142 1
  226   217   174 1
  227   218   173 1
  228   219   171 1
  229   220   170 1
  230   221   169 1
  231   222   140 1
  232   223   167 1
  233   224   166 1
  234   225   165 1
  235   226   163 1
  236   227   161 1
  237   228   139 1
  238   229   139 1
  239   230   153 1
  240   231   152 1
  241   232   150 1
  242   233   149 1
  243   234   148 1
  244   235   162 1
  245   65    153 1
  246   65    174 1
@<TRIPOS>SUBSTRUCTURE
      1 CLA               1 ****               0 ****  **** 
      2 LUT             138 ****               0 ****  **** 
