@<TRIPOS>MOLECULE
Cpptraj generated mol2 file.
  235   246     2     0     0
SMALL
USER_CHARGES


@<TRIPOS>ATOM
      1 CAA        79.9690   59.4249   34.4941 a2         1 CLA     -0.055900
      2 CAB        78.7216   61.6002   43.8499 c8         1 CLA     -0.148500
      3 CAC        72.3402   57.4474   41.9268 a2         1 CLA     -0.012600
      4 CAD        75.9624   56.3099   34.7801 ck         1 CLA      0.398800
      5 NA         78.6740   59.2193   37.6753 ns         1 CLA     -0.225500
      6 CBA        81.2859   59.5143   33.6100 a2         1 CLA     -0.135000
      7 CBB        79.3341   62.6850   44.4618 c0         1 CLA     -0.395200
      8 CBC        72.6678   55.9923   42.1226 a3         1 CLA     -0.037700
      9 CBD        77.3680   57.0829   34.6303 a1         1 CLA     -0.053900
     10 NB         78.1503   60.1241   40.4860 nm         1 CLA     -0.295700
     11 OBD        75.5104   55.5290   33.8968 o2         1 CLA     -0.494600
     12 CGA        81.8302   58.1606   32.9742 c4         1 CLA      0.827000
     13 CGD        78.4577   56.0916   34.3792 c4         1 CLA      0.655300
     14 ND         75.7887   58.0623   37.8214 nm         1 CLA     -0.291600
     15 CED        79.5179   54.0326   35.0663 a3         1 CLA      0.005400
     16 CHA        77.5309   57.8759   36.0332 cs         1 CLA     -0.123800
     17 CHB        80.2288   60.3185   39.1416 aa         1 CLA     -0.291900
     18 CHC        76.5135   60.1635   42.3296 aa         1 CLA     -0.090400
     19 CHD        73.9190   57.4795   39.2648 aa         1 CLA     -0.052000
     20 CMA        82.2474   58.6111   37.1577 a3         1 CLA     -0.230700
     21 CMB        81.3683   61.7929   41.6407 a3         1 CLA     -0.180800
     22 CMC        74.0949   59.3486   43.8549 a3         1 CLA     -0.134000
     23 CMD        73.0300   55.8133   36.5812 a3         1 CLA     -0.141100
     24 C1         82.9115   55.9731   33.5479 a2         1 CLA      0.023000
     25 C1A        78.6485   58.5083   36.4930 ac         1 CLA     -0.015100
     26 C1B        79.4254   60.6092   40.3035 cr         1 CLA      0.054700
     27 C1C        75.4798   59.5314   41.6990 cn         1 CLA     -0.005600
     28 C1D        74.6118   57.3954   38.0155 ap         1 CLA     -0.047300
     29 O1A        81.7729   57.8604   31.8154 o2         1 CLA     -0.610800
     30 O1D        79.2344   56.1935   33.4210 o2         1 CLA     -0.558200
     31 C2         83.4324   55.2938   34.7758 c8         1 CLA     -0.325100
     32 C2A        80.0435   58.6435   35.7974 a1         1 CLA      0.098600
     33 C2B        79.9610   61.1953   41.4920 cb         1 CLA      0.088500
     34 C2C        74.2710   59.1617   42.4068 cb         1 CLA      0.053700
     35 C2D        74.2559   56.6708   36.8123 cb         1 CLA      0.058900
     36 O2A        82.3831   57.2922   33.9146 o1         1 CLA     -0.437200
     37 O2D        78.4762   54.9902   35.2834 o1         1 CLA     -0.357600
     38 C3         84.4847   54.4744   34.6198 c5         1 CLA      0.031200
     39 C3A        80.9203   59.4142   36.7709 a1         1 CLA      0.166800
     40 C3B        78.8971   61.1298   42.4223 cb         1 CLA      0.035000
     41 C3C        73.5835   58.3124   41.6042 cb         1 CLA     -0.089900
     42 C3D        75.3943   56.7523   36.0246 cb         1 CLA     -0.035900
     43 C4         84.2864   52.9761   34.5090 a3         1 CLA     -0.053300
     44 C4A        79.9432   59.6951   37.9455 ac         1 CLA      0.001800
     45 C4B        77.7981   60.4613   41.7448 cn         1 CLA     -0.020900
     46 C4C        74.3243   58.2821   40.3589 cr         1 CLA     -0.044400
     47 C4D        76.2768   57.6919   36.6645 c6         1 CLA     -0.046000
     48 C5         85.8674   54.9446   34.5761 a2         1 CLA     -0.070400
     49 C6         86.1076   56.0820   35.6139 a2         1 CLA      0.043900
     50 C7         85.8455   55.6899   37.1275 a2         1 CLA     -0.150000
     51 C8         85.7193   56.9611   38.0375 a1         1 CLA      0.064200
     52 C9         86.9915   57.9173   37.9481 a3         1 CLA     -0.259300
     53 C10        85.4398   56.5172   39.5332 a2         1 CLA     -0.071900
     54 C11        85.2033   57.6511   40.5140 a2         1 CLA      0.014500
     55 C12        84.8989   57.0818   41.9467 a2         1 CLA     -0.112100
     56 C13        84.6641   58.1525   43.0902 a1         1 CLA      0.089200
     57 C14        86.0012   59.0536   43.1378 a3         1 CLA     -0.239100
     58 C15        84.4457   57.4623   44.5537 a2         1 CLA     -0.102200
     59 C16        83.0516   57.2785   45.1452 a2         1 CLA      0.023900
     60 C17        82.1071   58.5184   45.2904 a2         1 CLA     -0.105700
     61 C18        82.5908   59.6802   46.1815 a1         1 CLA      0.206800
     62 C19        81.8176   61.0244   46.0678 a3         1 CLA     -0.280100
     63 C20        82.5191   59.2466   47.7026 a3         1 CLA     -0.280100
     64 NC         75.4813   59.0365   40.4717 nx         1 CLA     -0.309200
     65 MG         76.9521   59.2419   39.0635 mg         1 CLA      0.895000
     66 HMD3       72.3490   56.6992   36.3116 dc         1 CLA      0.064300
     67 HMD2       73.0144   55.0831   35.7886 dc         1 CLA      0.064300
     68 HMD1       72.6485   55.2650   37.4666 dc         1 CLA      0.064300
     69 HMC3       73.6976   60.3969   44.0120 dc         1 CLA      0.052100
     70 HMC2       73.3177   58.7146   44.1705 dc         1 CLA      0.052100
     71 HMC1       74.9590   59.1912   44.5275 dc         1 CLA      0.052100
     72 HMB3       82.1363   61.0858   41.2950 dc         1 CLA      0.063600
     73 HMB2       81.5088   62.7085   41.0859 dc         1 CLA      0.063600
     74 HMB1       81.5415   62.0080   42.7404 dc         1 CLA      0.063600
     75 HMA3       82.7687   58.4252   36.1940 dc         1 CLA      0.058300
     76 HMA2       82.8529   59.2816   37.7596 dc         1 CLA      0.058300
     77 HMA1       82.0405   57.6750   37.7360 dc         1 CLA      0.058300
     78 HED3       79.2167   53.3961   34.2284 dc         1 CLA      0.079300
     79 HED2       80.5079   54.5009   34.9024 dc         1 CLA      0.079300
     80 HED1       79.6024   53.3495   35.8967 dc         1 CLA      0.079300
     81 HBC3       71.7840   55.3339   42.2544 dc         1 CLA      0.016300
     82 HBC2       73.2096   55.5810   41.3241 dc         1 CLA      0.016300
     83 HBC1       73.3459   55.9344   42.9242 dc         1 CLA      0.016300
     84 HBB2       79.0624   63.0633   45.4872 da         1 CLA      0.183000
     85 HBB1       80.0903   63.3622   43.9611 da         1 CLA      0.183000
     86 HBA2       81.0873   60.2831   32.8439 dc         1 CLA      0.029400
     87 HBA1       82.0620   59.9435   34.1842 dc         1 CLA      0.029400
     88 HAC2       71.8059   57.8306   42.7828 dc         1 CLA      0.029300
     89 HAC1       71.6206   57.5906   41.1364 dc         1 CLA      0.029300
     90 HAA2       79.2807   58.8542   33.8246 dc         1 CLA      0.028700
     91 HAA1       79.6831   60.4730   34.6105 dc         1 CLA      0.028700
     92 H203       82.7174   60.1040   48.3386 dc         1 CLA      0.065600
     93 H202       81.4474   58.8203   47.8789 dc         1 CLA      0.065600
     94 H201       83.3017   58.4373   47.8470 dc         1 CLA      0.065600
     95 H193       82.2213   61.7645   46.7943 dc         1 CLA      0.065600
     96 H192       81.8154   61.3231   45.0217 dc         1 CLA      0.065600
     97 H191       80.8259   60.8724   46.4307 dc         1 CLA      0.065600
     98 H172       82.1002   59.0103   44.3310 dc         1 CLA      0.027600
     99 H171       81.1508   58.1046   45.6245 dc         1 CLA      0.027600
    100 H162       82.6119   56.4827   44.5484 dc         1 CLA      0.002900
    101 H161       83.1779   56.9168   46.1843 dc         1 CLA      0.002900
    102 H152       84.9501   56.4767   44.4575 dc         1 CLA      0.029100
    103 H151       84.9722   58.0732   45.2455 dc         1 CLA      0.029100
    104 H143       86.7585   58.2973   43.1900 dc         1 CLA      0.063600
    105 H142       86.0966   59.5922   42.2220 dc         1 CLA      0.063600
    106 H141       85.9732   59.6679   44.0365 dc         1 CLA      0.063600
    107 H122       83.9564   56.5175   41.8635 dc         1 CLA      0.032500
    108 H121       85.7026   56.4100   42.2617 dc         1 CLA      0.032500
    109 H112       86.1501   58.1376   40.4908 dc         1 CLA      0.006600
    110 H111       84.4479   58.4065   40.1369 dc         1 CLA      0.006600
    111 H102       84.5065   55.9623   39.4518 dc         1 CLA      0.024100
    112 H101       86.1890   55.8868   39.7797 dc         1 CLA      0.024100
    113 HHD        73.0027   56.8388   39.4624 da         1 CLA      0.174300
    114 HHC        76.4553   60.5489   43.3864 da         1 CLA      0.136800
    115 HHB        81.2740   60.6156   39.1044 da         1 CLA      0.138300
    116 HBD        77.3128   57.6979   33.7470 dc         1 CLA      0.107700
    117 HAB        77.9673   61.1382   44.4516 da         1 CLA      0.155200
    118 H93        86.9898   58.8841   38.3845 dc         1 CLA      0.069500
    119 H92        87.8685   57.4564   38.3554 dc         1 CLA      0.069500
    120 H91        87.2182   58.1247   36.9534 dc         1 CLA      0.069500
    121 H8         84.8907   57.5466   37.7115 dc         1 CLA      0.029300
    122 H72        84.9233   55.1519   37.1412 dc         1 CLA      0.044400
    123 H71        86.6439   54.9961   37.4513 dc         1 CLA      0.044400
    124 H62        87.0915   56.4463   35.4393 dc         1 CLA      0.015600
    125 H61        85.3446   56.8243   35.2884 dc         1 CLA      0.015600
    126 H52        86.6420   54.1577   34.7234 dc         1 CLA      0.033200
    127 H51        85.9759   55.4909   33.6582 dc         1 CLA      0.033200
    128 H43        84.3049   52.5823   35.4904 dc         1 CLA      0.037000
    129 H42        83.2984   52.6924   34.1517 dc         1 CLA      0.037000
    130 H41        85.1217   52.4819   33.9854 dc         1 CLA      0.037000
    131 H3A        81.1189   60.4115   36.3740 dc         1 CLA      0.041100
    132 H2A        80.5255   57.6785   35.7014 dc         1 CLA      0.083100
    133 H2         83.2390   55.6770   35.7013 da         1 CLA      0.180900
    134 H18        83.5778   59.9416   45.8916 dc         1 CLA     -0.003900
    135 H13        83.8726   58.8218   42.9411 dc         1 CLA      0.019700
    136 H12        82.0329   55.5376   33.1707 dc         1 CLA      0.120400
    137 H11        83.6674   55.9896   32.8607 dc         1 CLA      0.120400
    138 C1         69.4480   62.5034   50.6799 Z1         2 LUT      0.509236
    139 C2         68.1186   62.2133   51.4341 Z2         2 LUT     -0.434695
    140 C3         67.2307   63.4655   51.7382 Z3         2 LUT      0.437453
    141 O3         67.4258   63.8604   53.0348 S1         2 LUT     -0.547129
    142 C4         67.3772   64.6693   50.7843 Z4         2 LUT     -0.468603
    143 C5         68.2019   64.4453   49.5489 Z5         2 LUT      0.279246
    144 C6         69.1470   63.4694   49.4805 Z6         2 LUT     -0.305473
    145 C7         69.6236   62.9225   48.1797 Z7         2 LUT      0.069402
    146 C8         70.6188   63.4692   47.4956 Z8         2 LUT     -0.191631
    147 C9         71.2426   63.0012   46.3169 Z9         2 LUT      0.196698
    148 C10        72.2380   63.7788   45.8268 Y1         2 LUT     -0.208611
    149 C11        72.8866   63.6752   44.5490 Y2         2 LUT      0.030784
    150 C12        74.0364   64.3820   44.2703 Y3         2 LUT     -0.220316
    151 C13        74.8191   64.2821   43.0320 Y4         2 LUT      0.215937
    152 C14        75.9977   64.9699   42.9778 Y5         2 LUT     -0.185793
    153 C15        77.1452   64.9057   42.0896 Y6         2 LUT     -0.057835
    154 C16        70.0741   61.0897   50.4130 Y7         2 LUT     -0.405615
    155 C17        70.2740   63.2453   51.7601 Y7         2 LUT     -0.405615
    156 C18        67.7740   65.2901   48.3697 Y9         2 LUT     -0.369639
    157 C19        70.6301   61.7746   45.5334 W1         2 LUT     -0.333362
    158 C20        74.3984   63.2163   42.0199 W2         2 LUT     -0.323439
    159 C21        88.0769   66.4921   35.5321 Z1         2 LUT      0.406104
    160 C22        88.5695   65.6751   34.3225 Z2         2 LUT     -0.404965
    161 C23        88.5037   66.3731   32.9860 Z3         2 LUT      0.391255
    162 O23        88.6307   65.3960   31.9511 S1         2 LUT     -0.528210
    163 C24        87.2266   67.1149   32.8945 W6         2 LUT     -0.258361
    164 C25        86.3210   67.4443   33.8493 Z5         2 LUT      0.133546
    165 C26        86.6252   66.8872   35.2869 W8         2 LUT     -0.147008
    166 C27        85.9953   67.5879   36.4521 Z7         2 LUT      0.023843
    167 C28        84.8901   67.0179   37.0330 Z8         2 LUT     -0.216987
    168 C29        84.3572   67.4880   38.2481 Z9         2 LUT      0.206524
    169 C30        83.2627   66.9230   38.7247 Y1         2 LUT     -0.215556
    170 C31        82.4875   67.1129   39.9279 Y2         2 LUT      0.025142
    171 C32        81.3657   66.4326   40.3116 Y3         2 LUT     -0.212209
    172 C33        80.4885   66.4949   41.4361 Y4         2 LUT      0.240937
    173 C34        79.3257   65.7558   41.4000 Y5         2 LUT     -0.218862
    174 C35        78.2061   65.7410   42.2915 Y6         2 LUT     -0.023547
    175 C36        89.0203   67.6857   35.7561 Y7         2 LUT     -0.393485
    176 C37        88.3829   65.6478   36.8260 Y7         2 LUT     -0.393485
    177 C38        85.0890   68.2374   33.6144 Y9         2 LUT     -0.387526
    178 C39        85.0144   68.7609   38.9415 W1         2 LUT     -0.322618
    179 C40        80.7367   67.7202   42.3284 W2         2 LUT     -0.358472
    180 H403       81.7460   67.8335   42.7099 R7         2 LUT      0.097720
    181 H402       80.5082   68.6528   41.7667 R7         2 LUT      0.097720
    182 H401       80.1405   67.6723   43.2587 R7         2 LUT      0.097720
    183 H393       85.0603   69.5560   38.2285 R4         2 LUT      0.082505
    184 H392       84.2646   69.1302   39.7141 R4         2 LUT      0.082505
    185 H391       86.0185   68.6342   39.3716 R4         2 LUT      0.082505
    186 H383       85.0054   68.7934   32.6622 R1         2 LUT      0.104030
    187 H382       84.2568   67.5817   33.7244 R1         2 LUT      0.104030
    188 H381       84.9691   68.8512   34.4159 R1         2 LUT      0.104030
    189 H373       87.5715   64.9167   37.0569 T4         2 LUT      0.089537
    190 H372       89.2897   65.1695   36.7087 T4         2 LUT      0.089537
    191 H371       88.4189   66.2813   37.7477 T4         2 LUT      0.089537
    192 H363       88.9399   68.3807   34.9350 T4         2 LUT      0.089537
    193 H362       88.7424   68.4148   36.5947 T4         2 LUT      0.089537
    194 H361       90.0327   67.4468   36.0784 T4         2 LUT      0.089537
    195 H222       89.6424   65.3908   34.3994 U2         2 LUT      0.127376
    196 H221       88.0149   64.7368   34.1137 U2         2 LUT      0.127376
    197 H203       74.9747   62.3392   42.0986 R7         2 LUT      0.087068
    198 H202       73.3726   62.9544   42.1401 R7         2 LUT      0.087068
    199 H201       74.4282   63.5477   41.0104 R7         2 LUT      0.087068
    200 H193       70.7485   60.8312   46.0076 R4         2 LUT      0.089716
    201 H192       69.5449   61.9095   45.4947 R4         2 LUT      0.089716
    202 H191       70.9610   61.6838   44.4583 R4         2 LUT      0.089716
    203 H183       67.4542   66.3115   48.6932 R1         2 LUT      0.094572
    204 H182       68.5348   65.2851   47.6232 R1         2 LUT      0.094572
    205 H181       66.8939   64.7722   47.9085 R1         2 LUT      0.094572
    206 H173       70.6222   62.6684   52.6286 T4         2 LUT      0.093752
    207 H172       71.2257   63.6151   51.3398 T4         2 LUT      0.093752
    208 H171       69.7173   64.0860   52.1097 T4         2 LUT      0.093752
    209 H163       69.5236   60.3958   49.8048 T4         2 LUT      0.093752
    210 H162       71.1265   61.1800   49.9938 T4         2 LUT      0.093752
    211 H161       70.2124   60.5365   51.3360 T4         2 LUT      0.093752
    212 HO3        67.1084   63.2755   53.7651 Q1         2 LUT      0.300121
    213 H8         71.0496   64.3910   48.0048 U7         2 LUT      0.080784
    214 H7         69.1395   62.0240   47.8289 U6         2 LUT      0.042190
    215 H42        66.3800   64.9928   50.4603 U5         2 LUT      0.145166
    216 H41        67.8269   65.4496   51.3570 U5         2 LUT      0.145166
    217 H35        78.1632   66.2910   43.2320 T3         2 LUT      0.077919
    218 H34        79.1116   65.1358   40.5369 T2         2 LUT      0.073626
    219 H32        81.0558   65.7271   39.6005 T1         2 LUT      0.092510
    220 H31        82.9503   67.8847   40.5970 U9         2 LUT      0.070048
    221 H30        82.8736   66.0984   38.1506 U8         2 LUT      0.085442
    222 H3         66.1781   63.3104   51.7571 U3         2 LUT     -0.031596
    223 H28        84.3588   66.1621   36.5676 U7         2 LUT      0.084728
    224 H27        86.5451   68.3350   37.0306 U6         2 LUT      0.087291
    225 H26        86.1234   65.8996   35.1915 Q6         2 LUT      0.075325
    226 H24        86.9284   67.5615   31.9505 Q5         2 LUT      0.094482
    227 H23        89.3959   67.0751   33.0133 U3         2 LUT     -0.024869
    228 H22        67.4778   61.5476   50.8106 U2         2 LUT      0.127376
    229 H21        68.3785   61.7559   52.4058 U2         2 LUT      0.127376
    230 H15        77.1025   64.1830   41.2684 T3         2 LUT      0.093200
    231 H14        76.2579   65.5572   43.8959 T2         2 LUT      0.068865
    232 H12        74.3686   65.1035   45.0686 T1         2 LUT      0.095507
    233 H11        72.4021   62.9598   43.9235 U9         2 LUT      0.068930
    234 H10        72.5506   64.6076   46.4151 U8         2 LUT      0.083911
    235 H1         89.0205   65.7696   31.1220 Q1         2 LUT      0.297311
@<TRIPOS>BOND
    1     6     1 1
    2     7     2 1
    3     8     3 1
    4     9     4 1
    5    11     4 1
    6    12     6 1
    7    13     9 1
    8    16     9 1
    9    25     5 1
   10    25    16 1
   11    26    10 1
   12    26    17 1
   13    27    18 1
   14    28    14 1
   15    28    19 1
   16    29    12 1
   17    30    13 1
   18    31    24 1
   19    32     1 1
   20    32    25 1
   21    33    21 1
   22    33    26 1
   23    34    22 1
   24    34    27 1
   25    35    23 1
   26    35    28 1
   27    36    12 1
   28    36    24 1
   29    37    13 1
   30    37    15 1
   31    38    31 1
   32    39    20 1
   33    39    32 1
   34    40     2 1
   35    40    33 1
   36    41     3 1
   37    41    34 1
   38    42     4 1
   39    42    35 1
   40    43    38 1
   41    44     5 1
   42    44    17 1
   43    44    39 1
   44    45    10 1
   45    45    18 1
   46    45    40 1
   47    46    19 1
   48    46    41 1
   49    47    14 1
   50    47    16 1
   51    47    42 1
   52    48    38 1
   53    49    48 1
   54    50    49 1
   55    51    50 1
   56    52    51 1
   57    53    51 1
   58    54    53 1
   59    55    54 1
   60    56    55 1
   61    57    56 1
   62    58    56 1
   63    59    58 1
   64    60    59 1
   65    61    60 1
   66    62    61 1
   67    63    61 1
   68    64    27 1
   69    64    46 1
   70    65     5 1
   71    65    10 1
   72    65    64 1
   73    65    14 1
   74    66    23 1
   75    67    23 1
   76    68    23 1
   77    69    22 1
   78    70    22 1
   79    71    22 1
   80    72    21 1
   81    73    21 1
   82    74    21 1
   83    75    20 1
   84    76    20 1
   85    77    20 1
   86    78    15 1
   87    79    15 1
   88    80    15 1
   89    81     8 1
   90    82     8 1
   91    83     8 1
   92    84     7 1
   93    85     7 1
   94    86     6 1
   95    87     6 1
   96    88     3 1
   97    89     3 1
   98    90     1 1
   99    91     1 1
  100    92    63 1
  101    93    63 1
  102    94    63 1
  103    95    62 1
  104    96    62 1
  105    97    62 1
  106    98    60 1
  107    99    60 1
  108   100    59 1
  109   101    59 1
  110   102    58 1
  111   103    58 1
  112   104    57 1
  113   105    57 1
  114   106    57 1
  115   107    55 1
  116   108    55 1
  117   109    54 1
  118   110    54 1
  119   111    53 1
  120   112    53 1
  121   113    19 1
  122   114    18 1
  123   115    17 1
  124   116     9 1
  125   117     2 1
  126   118    52 1
  127   119    52 1
  128   120    52 1
  129   121    51 1
  130   122    50 1
  131   123    50 1
  132   124    49 1
  133   125    49 1
  134   126    48 1
  135   127    48 1
  136   128    43 1
  137   129    43 1
  138   130    43 1
  139   131    39 1
  140   132    32 1
  141   133    31 1
  142   134    61 1
  143   135    56 1
  144   136    24 1
  145   137    24 1
  146   139   138 1
  147   140   139 1
  148   141   140 1
  149   142   140 1
  150   143   142 1
  151   144   138 1
  152   144   143 1
  153   145   144 1
  154   146   145 1
  155   147   146 1
  156   148   147 1
  157   149   148 1
  158   150   149 1
  159   151   150 1
  160   152   151 1
  161   153   152 1
  162   154   138 1
  163   155   138 1
  164   156   143 1
  165   157   147 1
  166   158   151 1
  167   160   159 1
  168   161   160 1
  169   162   161 1
  170   163   161 1
  171   164   163 1
  172   165   159 1
  173   165   164 1
  174   166   165 1
  175   167   166 1
  176   168   167 1
  177   169   168 1
  178   170   169 1
  179   171   170 1
  180   172   171 1
  181   173   172 1
  182   174   153 1
  183   174   173 1
  184   175   159 1
  185   176   159 1
  186   177   164 1
  187   178   168 1
  188   179   172 1
  189   180   179 1
  190   181   179 1
  191   182   179 1
  192   183   178 1
  193   184   178 1
  194   185   178 1
  195   186   177 1
  196   187   177 1
  197   188   177 1
  198   189   176 1
  199   190   176 1
  200   191   176 1
  201   192   175 1
  202   193   175 1
  203   194   175 1
  204   195   160 1
  205   196   160 1
  206   197   158 1
  207   198   158 1
  208   199   158 1
  209   200   157 1
  210   201   157 1
  211   202   157 1
  212   203   156 1
  213   204   156 1
  214   205   156 1
  215   206   155 1
  216   207   155 1
  217   208   155 1
  218   209   154 1
  219   210   154 1
  220   211   154 1
  221   212   141 1
  222   213   146 1
  223   214   145 1
  224   215   142 1
  225   216   142 1
  226   217   174 1
  227   218   173 1
  228   219   171 1
  229   220   170 1
  230   221   169 1
  231   222   140 1
  232   223   167 1
  233   224   166 1
  234   225   165 1
  235   226   163 1
  236   227   161 1
  237   228   139 1
  238   229   139 1
  239   230   153 1
  240   231   152 1
  241   232   150 1
  242   233   149 1
  243   234   148 1
  244   235   162 1
  245   65    153 1
  246   65    174 1
@<TRIPOS>SUBSTRUCTURE
      1 CLA               1 ****               0 ****  **** 
      2 LUT             138 ****               0 ****  **** 
