@<TRIPOS>MOLECULE
Cpptraj generated mol2 file.
  235   246     2     0     0
SMALL
USER_CHARGES


@<TRIPOS>ATOM
      1 CAA        77.6554   58.0148   34.5594 a2         1 CLA     -0.055900
      2 CAB        77.2291   61.6281   43.6316 c8         1 CLA     -0.148500
      3 CAC        70.7859   57.0852   43.2513 a2         1 CLA     -0.012600
      4 CAD        73.4546   55.3639   35.6303 ck         1 CLA      0.398800
      5 NA         76.4862   58.2870   37.9165 ns         1 CLA     -0.225500
      6 CBA        78.9237   57.7626   33.6785 a2         1 CLA     -0.135000
      7 CBB        77.1292   61.0655   44.8479 c0         1 CLA     -0.395200
      8 CBC        70.9042   55.5832   43.2155 a3         1 CLA     -0.037700
      9 CBD        74.9370   55.9029   35.3211 a1         1 CLA     -0.053900
     10 NB         76.2915   59.6181   40.6030 nm         1 CLA     -0.295700
     11 OBD        72.9042   54.5979   34.8678 o2         1 CLA     -0.494600
     12 CGA        79.4406   56.3225   33.5214 c4         1 CLA      0.827000
     13 CGD        75.9284   54.7017   35.2157 c4         1 CLA      0.655300
     14 ND         73.7756   57.2762   38.5105 nm         1 CLA     -0.291600
     15 CED        76.8335   52.7198   36.0424 a3         1 CLA      0.005400
     16 CHA        75.1666   56.7957   36.4547 cs         1 CLA     -0.123800
     17 CHB        78.2182   59.5600   39.1139 aa         1 CLA     -0.291900
     18 CHC        74.9622   59.8868   42.6601 aa         1 CLA     -0.090400
     19 CHD        72.0284   56.9277   40.1507 aa         1 CLA     -0.052000
     20 CMA        79.9118   57.6508   37.5765 a3         1 CLA     -0.230700
     21 CMB        79.4692   61.5242   41.2809 a3         1 CLA     -0.180800
     22 CMC        72.8336   58.9053   44.8491 a3         1 CLA     -0.134000
     23 CMD        70.5745   55.3242   37.7685 a3         1 CLA     -0.141100
     24 C1         80.6379   54.6228   34.5961 a2         1 CLA      0.023000
     25 C1A        76.3669   57.5953   36.7836 ac         1 CLA     -0.015100
     26 C1B        77.4951   60.1077   40.2555 cr         1 CLA      0.054700
     27 C1C        73.9404   58.9641   42.4205 cn         1 CLA     -0.005600
     28 C1D        72.5152   56.8039   38.8459 ap         1 CLA     -0.047300
     29 O1A        79.1735   55.5447   32.5815 o2         1 CLA     -0.610800
     30 O1D        76.6182   54.5630   34.2155 o2         1 CLA     -0.558200
     31 C2         81.2195   54.2816   36.0054 c8         1 CLA     -0.325100
     32 C2A        77.7199   57.6002   36.1033 a1         1 CLA      0.098600
     33 C2B        78.0945   60.9207   41.2869 cb         1 CLA      0.088500
     34 C2C        72.9518   58.5062   43.3826 cb         1 CLA      0.053700
     35 C2D        71.9265   55.9369   37.7779 cb         1 CLA      0.058900
     36 O2A        80.2053   55.9940   34.5920 o1         1 CLA     -0.437200
     37 O2D        75.9955   53.9178   36.3197 o1         1 CLA     -0.357600
     38 C3         82.0856   53.2699   36.3820 c5         1 CLA      0.031200
     39 C3A        78.7030   58.4013   36.9565 a1         1 CLA      0.166800
     40 C3B        77.1150   61.0245   42.2832 cb         1 CLA      0.035000
     41 C3C        72.0248   57.7516   42.6106 cb         1 CLA     -0.089900
     42 C3D        72.9811   55.9596   36.8674 cb         1 CLA     -0.035900
     43 C4         81.5801   51.9345   36.8842 a3         1 CLA     -0.053300
     44 C4A        77.7505   58.7788   38.0724 ac         1 CLA      0.001800
     45 C4B        76.0541   60.1797   41.8553 cn         1 CLA     -0.020900
     46 C4C        72.5744   57.5861   41.2523 cr         1 CLA     -0.044400
     47 C4D        74.0860   56.7228   37.3510 c6         1 CLA     -0.046000
     48 C5         83.5427   53.5434   36.4543 a2         1 CLA     -0.070400
     49 C6         84.2555   54.8385   36.7489 a2         1 CLA      0.043900
     50 C7         84.2352   55.2189   38.2502 a2         1 CLA     -0.150000
     51 C8         84.8312   56.6750   38.5547 a1         1 CLA      0.064200
     52 C9         86.3181   56.7284   38.0571 a3         1 CLA     -0.259300
     53 C10        84.8035   56.9550   40.0696 a2         1 CLA     -0.071900
     54 C11        83.4740   56.5777   40.8136 a2         1 CLA      0.014500
     55 C12        83.3461   57.3459   42.1300 a2         1 CLA     -0.112100
     56 C13        84.4032   57.2362   43.2810 a1         1 CLA      0.089200
     57 C14        84.3074   55.8252   43.9286 a3         1 CLA     -0.239100
     58 C15        84.2150   58.3944   44.3278 a2         1 CLA     -0.102200
     59 C16        82.8093   58.7626   44.8457 a2         1 CLA      0.023900
     60 C17        82.9891   60.0110   45.7142 a2         1 CLA     -0.105700
     61 C18        81.6183   60.7432   46.1944 a1         1 CLA      0.206800
     62 C19        81.8274   61.6817   47.3896 a3         1 CLA     -0.280100
     63 C20        80.9123   61.4541   45.0088 a3         1 CLA     -0.280100
     64 NC         73.7066   58.3276   41.1461 nx         1 CLA     -0.309200
     65 MG         74.9646   58.4922   39.4474 mg         1 CLA      0.895000
     66 HMD3       70.5790   54.4650   37.0499 dc         1 CLA      0.064300
     67 HMD2       70.2177   54.9518   38.7693 dc         1 CLA      0.064300
     68 HMD1       69.8735   56.1509   37.4347 dc         1 CLA      0.064300
     69 HMC3       72.1093   59.6280   45.0770 dc         1 CLA      0.052100
     70 HMC2       72.4506   58.0925   45.3963 dc         1 CLA      0.052100
     71 HMC1       73.7794   59.3443   45.2116 dc         1 CLA      0.052100
     72 HMB3       79.5498   62.5249   40.7881 dc         1 CLA      0.063600
     73 HMB2       79.6865   61.7485   42.3186 dc         1 CLA      0.063600
     74 HMB1       80.2557   60.7364   41.0804 dc         1 CLA      0.063600
     75 HMA3       80.5173   57.2567   36.7826 dc         1 CLA      0.058300
     76 HMA2       80.5836   58.3573   38.1300 dc         1 CLA      0.058300
     77 HMA1       79.6217   56.8922   38.2856 dc         1 CLA      0.058300
     78 HED3       76.3425   52.0899   35.3235 dc         1 CLA      0.079300
     79 HED2       77.8199   53.0658   35.8248 dc         1 CLA      0.079300
     80 HED1       76.8139   52.2496   37.0328 dc         1 CLA      0.079300
     81 HBC3       70.8842   55.3083   42.1963 dc         1 CLA      0.016300
     82 HBC2       71.9615   55.4656   43.6415 dc         1 CLA      0.016300
     83 HBC1       70.1600   54.9940   43.8227 dc         1 CLA      0.016300
     84 HBB2       77.3425   61.6202   45.8022 da         1 CLA      0.183000
     85 HBB1       76.6949   60.0356   45.0264 da         1 CLA      0.183000
     86 HBA2       78.6901   58.1515   32.7226 dc         1 CLA      0.029400
     87 HBA1       79.7312   58.3927   34.1689 dc         1 CLA      0.029400
     88 HAC2       70.7441   57.2927   44.2865 dc         1 CLA      0.029300
     89 HAC1       69.7894   57.3997   42.7888 dc         1 CLA      0.029300
     90 HAA2       76.9136   57.4230   34.1268 dc         1 CLA      0.028700
     91 HAA1       77.3375   59.0594   34.5322 dc         1 CLA      0.028700
     92 H203       79.8494   61.5001   45.2302 dc         1 CLA      0.065600
     93 H202       81.3321   62.4372   44.8661 dc         1 CLA      0.065600
     94 H201       80.9931   60.8910   44.1053 dc         1 CLA      0.065600
     95 H193       82.5409   62.5236   47.1958 dc         1 CLA      0.065600
     96 H192       80.8694   62.0762   47.7358 dc         1 CLA      0.065600
     97 H191       82.2881   61.1126   48.1263 dc         1 CLA      0.065600
     98 H172       83.5632   59.7907   46.6230 dc         1 CLA      0.027600
     99 H171       83.4801   60.6249   44.9545 dc         1 CLA      0.027600
    100 H162       82.0395   59.0102   44.0578 dc         1 CLA      0.002900
    101 H161       82.3424   57.9686   45.3964 dc         1 CLA      0.002900
    102 H152       84.9184   58.2394   45.1773 dc         1 CLA      0.029100
    103 H151       84.5632   59.2427   43.7150 dc         1 CLA      0.029100
    104 H143       83.3578   55.5844   44.3687 dc         1 CLA      0.063600
    105 H142       84.6294   55.1927   43.1069 dc         1 CLA      0.063600
    106 H141       85.0099   55.7057   44.7454 dc         1 CLA      0.063600
    107 H122       83.3104   58.3654   41.8527 dc         1 CLA      0.032500
    108 H121       82.3679   57.0006   42.4782 dc         1 CLA      0.032500
    109 H112       82.6038   56.7369   40.1309 dc         1 CLA      0.006600
    110 H111       83.5781   55.5549   41.1340 dc         1 CLA      0.006600
    111 H102       85.6965   56.5079   40.5294 dc         1 CLA      0.024100
    112 H101       84.9492   58.0242   40.0834 dc         1 CLA      0.024100
    113 HHD        71.1149   56.3338   40.3400 da         1 CLA      0.174300
    114 HHC        74.7441   60.5311   43.5081 da         1 CLA      0.136800
    115 HHB        79.2086   59.9563   38.9922 da         1 CLA      0.138300
    116 HBD        74.7993   56.3278   34.3517 dc         1 CLA      0.107700
    117 HAB        77.6307   62.6587   43.6447 da         1 CLA      0.155200
    118 H93        86.9453   55.8825   38.3270 dc         1 CLA      0.069500
    119 H92        86.2437   56.7729   36.9310 dc         1 CLA      0.069500
    120 H91        86.8001   57.6489   38.3788 dc         1 CLA      0.069500
    121 H8         84.1406   57.4644   38.0094 dc         1 CLA      0.029300
    122 H72        83.1607   55.1930   38.5651 dc         1 CLA      0.044400
    123 H71        84.7850   54.4824   38.8262 dc         1 CLA      0.044400
    124 H62        85.2878   54.7232   36.4169 dc         1 CLA      0.015600
    125 H61        83.7396   55.5970   36.2207 dc         1 CLA      0.015600
    126 H52        83.9871   52.7612   37.0802 dc         1 CLA      0.033200
    127 H51        83.8848   53.2731   35.4334 dc         1 CLA      0.033200
    128 H43        82.3125   51.5622   37.5827 dc         1 CLA      0.037000
    129 H42        80.5917   51.9971   37.3744 dc         1 CLA      0.037000
    130 H41        81.4280   51.3193   36.0078 dc         1 CLA      0.037000
    131 H3A        78.9586   59.3354   36.5304 dc         1 CLA      0.041100
    132 H2A        77.9086   56.5376   36.1456 dc         1 CLA      0.083100
    133 H2         80.9551   54.9610   36.8205 da         1 CLA      0.180900
    134 H18        81.0429   59.9254   46.5775 dc         1 CLA     -0.003900
    135 H13        85.3403   57.1650   42.7445 dc         1 CLA      0.019700
    136 H12        79.8319   53.9270   34.4768 dc         1 CLA      0.120400
    137 H11        81.4074   54.2841   33.9107 dc         1 CLA      0.120400
    138 C1         67.9748   61.4206   50.8106 Z1         2 LUT      0.509236
    139 C2         66.6649   61.2186   51.6992 Z2         2 LUT     -0.434695
    140 C3         65.6658   62.3964   51.7511 Z3         2 LUT      0.437453
    141 O3         65.2681   62.8629   53.0024 S1         2 LUT     -0.547129
    142 C4         65.8417   63.4712   50.7742 Z4         2 LUT     -0.468603
    143 C5         66.5384   63.0204   49.5103 Z5         2 LUT      0.279246
    144 C6         67.5044   62.0884   49.4921 Z6         2 LUT     -0.305473
    145 C7         68.0813   61.5332   48.3095 Z7         2 LUT      0.069402
    146 C8         68.6984   62.1815   47.2332 Z8         2 LUT     -0.191631
    147 C9         69.2595   61.6791   46.0124 Z9         2 LUT      0.196698
    148 C10        70.0052   62.4806   45.1552 Y1         2 LUT     -0.208611
    149 C11        70.6542   62.2705   43.8605 Y2         2 LUT      0.030784
    150 C12        71.7614   63.0250   43.4929 Y3         2 LUT     -0.220316
    151 C13        72.6445   62.8361   42.3662 Y4         2 LUT      0.215937
    152 C14        73.7602   63.6834   42.3606 Y5         2 LUT     -0.185793
    153 C15        74.8596   63.7072   41.4878 Y6         2 LUT     -0.057835
    154 C16        68.8880   60.1032   50.8372 Y7         2 LUT     -0.405615
    155 C17        68.8348   62.4642   51.6157 Y7         2 LUT     -0.405615
    156 C18        65.9779   63.6967   48.3262 Y9         2 LUT     -0.369639
    157 C19        68.9137   60.2044   45.7007 W1         2 LUT     -0.333362
    158 C20        72.2313   61.7996   41.3113 W2         2 LUT     -0.323439
    159 C21        86.1599   64.7526   35.0490 Z1         2 LUT      0.406104
    160 C22        86.8926   64.5630   33.7619 Z2         2 LUT     -0.404965
    161 C23        86.9311   65.7584   32.9091 Z3         2 LUT      0.391255
    162 O23        87.6264   65.4575   31.7169 S1         2 LUT     -0.528210
    163 C24        85.6214   66.4010   32.6798 W6         2 LUT     -0.258361
    164 C25        84.6042   66.2644   33.5373 Z5         2 LUT      0.133546
    165 C26        84.7482   65.3863   34.8567 W8         2 LUT     -0.147008
    166 C27        83.9823   65.9689   36.0235 Z7         2 LUT      0.023843
    167 C28        83.0274   65.3190   36.7626 Z8         2 LUT     -0.216987
    168 C29        82.3124   65.7980   37.9693 Z9         2 LUT      0.206524
    169 C30        81.1952   65.2299   38.3379 Y1         2 LUT     -0.215556
    170 C31        80.4898   65.4091   39.5729 Y2         2 LUT      0.025142
    171 C32        79.1551   65.0544   39.5584 Y3         2 LUT     -0.212209
    172 C33        78.2436   65.1421   40.6511 Y4         2 LUT      0.240937
    173 C34        76.9891   64.4884   40.5687 Y5         2 LUT     -0.218862
    174 C35        75.9311   64.5026   41.5309 Y6         2 LUT     -0.023547
    175 C36        87.0211   65.6937   35.9222 Y7         2 LUT     -0.393485
    176 C37        86.1746   63.3746   35.8470 Y7         2 LUT     -0.393485
    177 C38        83.2872   66.9474   33.2110 Y9         2 LUT     -0.387526
    178 C39        83.0447   66.9689   38.7196 W1         2 LUT     -0.322618
    179 C40        78.7237   65.8756   41.9135 W2         2 LUT     -0.358472
    180 H403       79.7011   65.5094   42.2074 R7         2 LUT      0.097720
    181 H402       78.8518   66.9599   41.7982 R7         2 LUT      0.097720
    182 H401       78.1249   65.8720   42.7727 R7         2 LUT      0.097720
    183 H393       84.1302   67.0980   38.4868 R4         2 LUT      0.082505
    184 H392       82.5635   67.8418   38.4340 R4         2 LUT      0.082505
    185 H391       83.0630   66.8996   39.7618 R4         2 LUT      0.082505
    186 H383       82.5845   66.2224   32.7775 R1         2 LUT      0.104030
    187 H382       82.7352   67.4581   33.9862 R1         2 LUT      0.104030
    188 H381       83.4017   67.6854   32.4054 R1         2 LUT      0.104030
    189 H373       85.6080   63.6155   36.7790 T4         2 LUT      0.089537
    190 H372       85.5719   62.6496   35.2747 T4         2 LUT      0.089537
    191 H371       87.1280   62.9702   36.0270 T4         2 LUT      0.089537
    192 H363       87.0599   66.7054   35.4798 T4         2 LUT      0.089537
    193 H362       86.7927   65.7813   37.0052 T4         2 LUT      0.089537
    194 H361       88.0801   65.4010   36.0061 T4         2 LUT      0.089537
    195 H222       87.9189   64.3250   34.0512 U2         2 LUT      0.127376
    196 H221       86.4702   63.7433   33.1897 U2         2 LUT      0.127376
    197 H203       72.9875   61.6244   40.5000 R7         2 LUT      0.087068
    198 H202       72.2028   60.8287   41.8495 R7         2 LUT      0.087068
    199 H201       71.2852   62.0999   40.7672 R7         2 LUT      0.087068
    200 H193       67.9298   59.9016   46.0091 R4         2 LUT      0.089716
    201 H192       68.9680   59.8904   44.6666 R4         2 LUT      0.089716
    202 H191       69.6908   59.6114   46.1718 R4         2 LUT      0.089716
    203 H183       66.0474   64.7594   48.3218 R1         2 LUT      0.094572
    204 H182       66.2934   63.3807   47.3106 R1         2 LUT      0.094572
    205 H181       64.9400   63.4639   48.2388 R1         2 LUT      0.094572
    206 H173       68.9023   62.2806   52.6789 T4         2 LUT      0.093752
    207 H172       69.8045   62.5707   51.1465 T4         2 LUT      0.093752
    208 H171       68.2511   63.3247   51.6817 T4         2 LUT      0.093752
    209 H163       69.2890   59.9011   51.8403 T4         2 LUT      0.093752
    210 H162       68.3068   59.2890   50.4572 T4         2 LUT      0.093752
    211 H161       69.7134   60.1986   50.1495 T4         2 LUT      0.093752
    212 HO3        65.9193   62.9254   53.6509 Q1         2 LUT      0.300121
    213 H8         68.7778   63.1964   47.3658 U7         2 LUT      0.080784
    214 H7         68.1717   60.4774   48.2342 U6         2 LUT      0.042190
    215 H42        64.8948   64.0363   50.4517 U5         2 LUT      0.145166
    216 H41        66.4567   64.2353   51.2358 U5         2 LUT      0.145166
    217 H35        75.9818   65.1284   42.4604 T3         2 LUT      0.077919
    218 H34        76.7770   63.9467   39.6589 T2         2 LUT      0.073626
    219 H32        78.7884   64.4930   38.6605 T1         2 LUT      0.092510
    220 H31        80.8525   65.9877   40.4110 U9         2 LUT      0.070048
    221 H30        80.8686   64.3885   37.7161 U8         2 LUT      0.085442
    222 H3         64.7204   61.9394   51.6179 U3         2 LUT     -0.031596
    223 H28        82.8708   64.2743   36.3664 U7         2 LUT      0.084728
    224 H27        84.1627   67.0236   36.1535 U6         2 LUT      0.087291
    225 H26        84.1801   64.5205   34.5806 Q6         2 LUT      0.075325
    226 H24        85.5438   66.9212   31.6523 Q5         2 LUT      0.094482
    227 H23        87.5125   66.5169   33.4055 U3         2 LUT     -0.024869
    228 H22        66.0628   60.4335   51.2447 U2         2 LUT      0.127376
    229 H21        66.8380   60.8088   52.7214 U2         2 LUT      0.127376
    230 H15        74.7923   63.0583   40.5764 T3         2 LUT      0.093200
    231 H14        73.7754   64.3503   43.2836 T2         2 LUT      0.068865
    232 H12        72.1229   63.8352   44.1397 T1         2 LUT      0.095507
    233 H11        70.3229   61.4213   43.2715 U9         2 LUT      0.068930
    234 H10        70.1986   63.4693   45.5564 U8         2 LUT      0.083911
    235 H1         87.0895   65.0181   31.0296 Q1         2 LUT      0.297311
@<TRIPOS>BOND
    1     6     1 1
    2     7     2 1
    3     8     3 1
    4     9     4 1
    5    11     4 1
    6    12     6 1
    7    13     9 1
    8    16     9 1
    9    25     5 1
   10    25    16 1
   11    26    10 1
   12    26    17 1
   13    27    18 1
   14    28    14 1
   15    28    19 1
   16    29    12 1
   17    30    13 1
   18    31    24 1
   19    32     1 1
   20    32    25 1
   21    33    21 1
   22    33    26 1
   23    34    22 1
   24    34    27 1
   25    35    23 1
   26    35    28 1
   27    36    12 1
   28    36    24 1
   29    37    13 1
   30    37    15 1
   31    38    31 1
   32    39    20 1
   33    39    32 1
   34    40     2 1
   35    40    33 1
   36    41     3 1
   37    41    34 1
   38    42     4 1
   39    42    35 1
   40    43    38 1
   41    44     5 1
   42    44    17 1
   43    44    39 1
   44    45    10 1
   45    45    18 1
   46    45    40 1
   47    46    19 1
   48    46    41 1
   49    47    14 1
   50    47    16 1
   51    47    42 1
   52    48    38 1
   53    49    48 1
   54    50    49 1
   55    51    50 1
   56    52    51 1
   57    53    51 1
   58    54    53 1
   59    55    54 1
   60    56    55 1
   61    57    56 1
   62    58    56 1
   63    59    58 1
   64    60    59 1
   65    61    60 1
   66    62    61 1
   67    63    61 1
   68    64    27 1
   69    64    46 1
   70    65     5 1
   71    65    10 1
   72    65    64 1
   73    65    14 1
   74    66    23 1
   75    67    23 1
   76    68    23 1
   77    69    22 1
   78    70    22 1
   79    71    22 1
   80    72    21 1
   81    73    21 1
   82    74    21 1
   83    75    20 1
   84    76    20 1
   85    77    20 1
   86    78    15 1
   87    79    15 1
   88    80    15 1
   89    81     8 1
   90    82     8 1
   91    83     8 1
   92    84     7 1
   93    85     7 1
   94    86     6 1
   95    87     6 1
   96    88     3 1
   97    89     3 1
   98    90     1 1
   99    91     1 1
  100    92    63 1
  101    93    63 1
  102    94    63 1
  103    95    62 1
  104    96    62 1
  105    97    62 1
  106    98    60 1
  107    99    60 1
  108   100    59 1
  109   101    59 1
  110   102    58 1
  111   103    58 1
  112   104    57 1
  113   105    57 1
  114   106    57 1
  115   107    55 1
  116   108    55 1
  117   109    54 1
  118   110    54 1
  119   111    53 1
  120   112    53 1
  121   113    19 1
  122   114    18 1
  123   115    17 1
  124   116     9 1
  125   117     2 1
  126   118    52 1
  127   119    52 1
  128   120    52 1
  129   121    51 1
  130   122    50 1
  131   123    50 1
  132   124    49 1
  133   125    49 1
  134   126    48 1
  135   127    48 1
  136   128    43 1
  137   129    43 1
  138   130    43 1
  139   131    39 1
  140   132    32 1
  141   133    31 1
  142   134    61 1
  143   135    56 1
  144   136    24 1
  145   137    24 1
  146   139   138 1
  147   140   139 1
  148   141   140 1
  149   142   140 1
  150   143   142 1
  151   144   138 1
  152   144   143 1
  153   145   144 1
  154   146   145 1
  155   147   146 1
  156   148   147 1
  157   149   148 1
  158   150   149 1
  159   151   150 1
  160   152   151 1
  161   153   152 1
  162   154   138 1
  163   155   138 1
  164   156   143 1
  165   157   147 1
  166   158   151 1
  167   160   159 1
  168   161   160 1
  169   162   161 1
  170   163   161 1
  171   164   163 1
  172   165   159 1
  173   165   164 1
  174   166   165 1
  175   167   166 1
  176   168   167 1
  177   169   168 1
  178   170   169 1
  179   171   170 1
  180   172   171 1
  181   173   172 1
  182   174   153 1
  183   174   173 1
  184   175   159 1
  185   176   159 1
  186   177   164 1
  187   178   168 1
  188   179   172 1
  189   180   179 1
  190   181   179 1
  191   182   179 1
  192   183   178 1
  193   184   178 1
  194   185   178 1
  195   186   177 1
  196   187   177 1
  197   188   177 1
  198   189   176 1
  199   190   176 1
  200   191   176 1
  201   192   175 1
  202   193   175 1
  203   194   175 1
  204   195   160 1
  205   196   160 1
  206   197   158 1
  207   198   158 1
  208   199   158 1
  209   200   157 1
  210   201   157 1
  211   202   157 1
  212   203   156 1
  213   204   156 1
  214   205   156 1
  215   206   155 1
  216   207   155 1
  217   208   155 1
  218   209   154 1
  219   210   154 1
  220   211   154 1
  221   212   141 1
  222   213   146 1
  223   214   145 1
  224   215   142 1
  225   216   142 1
  226   217   174 1
  227   218   173 1
  228   219   171 1
  229   220   170 1
  230   221   169 1
  231   222   140 1
  232   223   167 1
  233   224   166 1
  234   225   165 1
  235   226   163 1
  236   227   161 1
  237   228   139 1
  238   229   139 1
  239   230   153 1
  240   231   152 1
  241   232   150 1
  242   233   149 1
  243   234   148 1
  244   235   162 1
  245   65    153 1
  246   65    174 1
@<TRIPOS>SUBSTRUCTURE
      1 CLA               1 ****               0 ****  **** 
      2 LUT             138 ****               0 ****  **** 
