@<TRIPOS>MOLECULE
Cpptraj generated mol2 file.
  235   246     2     0     0
SMALL
USER_CHARGES


@<TRIPOS>ATOM
      1 CAA        79.4622   58.4826   35.1253 a2         1 CLA     -0.055900
      2 CAB        79.6144   62.0673   44.1373 c8         1 CLA     -0.148500
      3 CAC        72.6259   58.0275   43.6014 a2         1 CLA     -0.012600
      4 CAD        75.6707   55.5170   36.4762 ck         1 CLA      0.398800
      5 NA         78.5595   58.9152   38.3364 ns         1 CLA     -0.225500
      6 CBA        80.6914   58.2905   34.2368 a2         1 CLA     -0.135000
      7 CBB        80.6755   61.6521   44.8696 c0         1 CLA     -0.395200
      8 CBC        72.8367   56.5727   43.9312 a3         1 CLA     -0.037700
      9 CBD        77.2139   56.0057   36.3112 a1         1 CLA     -0.053900
     10 NB         78.5611   60.2476   41.0988 nm         1 CLA     -0.295700
     11 OBD        75.1457   54.6175   35.8518 o2         1 CLA     -0.494600
     12 CGA        81.1415   56.8297   33.8151 c4         1 CLA      0.827000
     13 CGD        78.0125   54.7705   36.5739 c4         1 CLA      0.655300
     14 ND         75.8201   57.9441   39.0515 nm         1 CLA     -0.291600
     15 CED        78.6973   53.0402   37.9300 a3         1 CLA      0.005400
     16 CHA        77.3717   57.1797   37.2606 cs         1 CLA     -0.123800
     17 CHB        80.3621   60.1640   39.5298 aa         1 CLA     -0.291900
     18 CHC        77.1388   60.4825   43.1526 aa         1 CLA     -0.090400
     19 CHD        73.9546   57.8088   40.6177 aa         1 CLA     -0.052000
     20 CMA        82.0531   58.2789   37.8378 a3         1 CLA     -0.230700
     21 CMB        81.8034   61.8923   41.7138 a3         1 CLA     -0.180800
     22 CMC        74.8371   59.8169   45.2073 a3         1 CLA     -0.134000
     23 CMD        72.8508   55.5726   38.4902 a3         1 CLA     -0.141100
     24 C1         82.1813   54.8492   34.5602 a2         1 CLA      0.023000
     25 C1A        78.4951   57.9465   37.4148 ac         1 CLA     -0.015100
     26 C1B        79.8112   60.5591   40.7527 cr         1 CLA      0.054700
     27 C1C        75.8633   59.8221   42.7822 cn         1 CLA     -0.005600
     28 C1D        74.5864   57.3885   39.4349 ap         1 CLA     -0.047300
     29 O1A        80.8643   56.3601   32.7497 o2         1 CLA     -0.610800
     30 O1D        78.4670   54.1287   35.6596 o2         1 CLA     -0.558200
     31 C2         82.4211   54.4004   35.9894 c8         1 CLA     -0.325100
     32 C2A        79.7523   57.9518   36.5670 a1         1 CLA      0.098600
     33 C2B        80.4062   61.3413   41.7548 cb         1 CLA      0.088500
     34 C2C        74.7436   59.5618   43.7279 cb         1 CLA      0.053700
     35 C2D        74.1185   56.4077   38.5011 cb         1 CLA      0.058900
     36 O2A        81.7897   56.2245   34.8323 o1         1 CLA     -0.437200
     37 O2D        78.0762   54.3893   37.8779 o1         1 CLA     -0.357600
     38 C3         83.4813   53.8530   36.6509 c5         1 CLA      0.031200
     39 C3A        80.7425   58.8687   37.3612 a1         1 CLA      0.166800
     40 C3B        79.4384   61.4671   42.8300 cb         1 CLA      0.035000
     41 C3C        73.8717   58.7598   43.0089 cb         1 CLA     -0.089900
     42 C3D        75.2132   56.2471   37.6537 cb         1 CLA     -0.035900
     43 C4         83.6698   52.3758   36.7949 a3         1 CLA     -0.053300
     44 C4A        79.8592   59.3540   38.4862 ac         1 CLA      0.001800
     45 C4B        78.2993   60.7058   42.3974 cn         1 CLA     -0.020900
     46 C4C        74.4433   58.5870   41.6695 cr         1 CLA     -0.044400
     47 C4D        76.2025   57.2158   37.9728 c6         1 CLA     -0.046000
     48 C5         84.6000   54.7476   37.2133 a2         1 CLA     -0.070400
     49 C6         85.9162   54.0615   37.3622 a2         1 CLA      0.043900
     50 C7         87.0104   55.1361   37.7937 a2         1 CLA     -0.150000
     51 C8         86.6773   55.9233   39.0693 a1         1 CLA      0.064200
     52 C9         86.0550   57.3491   38.7288 a3         1 CLA     -0.259300
     53 C10        87.9793   56.0074   39.8994 a2         1 CLA     -0.071900
     54 C11        87.8809   56.6950   41.3002 a2         1 CLA      0.014500
     55 C12        89.0350   56.1883   42.2337 a2         1 CLA     -0.112100
     56 C13        88.9922   56.8572   43.6586 a1         1 CLA      0.089200
     57 C14        90.4032   56.7259   44.4184 a3         1 CLA     -0.239100
     58 C15        87.9181   56.3320   44.5540 a2         1 CLA     -0.102200
     59 C16        87.6833   56.9890   45.9243 a2         1 CLA      0.023900
     60 C17        86.5527   56.3950   46.7082 a2         1 CLA     -0.105700
     61 C18        86.2967   57.0299   48.0960 a1         1 CLA      0.206800
     62 C19        85.8580   58.5088   48.1012 a3         1 CLA     -0.280100
     63 C20        85.1880   56.2070   48.8322 a3         1 CLA     -0.280100
     64 NC         75.6525   59.2671   41.5904 nx         1 CLA     -0.309200
     65 MG         77.1047   59.2272   39.9487 mg         1 CLA      0.895000
     66 HMD3       72.0761   56.1018   37.9671 dc         1 CLA      0.064300
     67 HMD2       73.0526   54.6171   38.0151 dc         1 CLA      0.064300
     68 HMD1       72.5798   55.2392   39.4643 dc         1 CLA      0.064300
     69 HMC3       75.4998   60.6061   45.5494 dc         1 CLA      0.052100
     70 HMC2       73.8947   59.8044   45.7304 dc         1 CLA      0.052100
     71 HMC1       75.3824   58.9452   45.4215 dc         1 CLA      0.052100
     72 HMB3       81.7480   62.3143   40.7050 dc         1 CLA      0.063600
     73 HMB2       82.0116   62.6935   42.4532 dc         1 CLA      0.063600
     74 HMB1       82.5640   61.1756   41.7865 dc         1 CLA      0.063600
     75 HMA3       82.7036   58.9647   38.3253 dc         1 CLA      0.058300
     76 HMA2       81.7991   57.4764   38.5676 dc         1 CLA      0.058300
     77 HMA1       82.5297   57.7851   37.0471 dc         1 CLA      0.058300
     78 HED3       79.6687   53.0287   37.4251 dc         1 CLA      0.079300
     79 HED2       78.7947   52.6175   38.9529 dc         1 CLA      0.079300
     80 HED1       77.9421   52.3752   37.4262 dc         1 CLA      0.079300
     81 HBC3       71.9495   56.1879   44.4237 dc         1 CLA      0.016300
     82 HBC2       72.9171   55.9671   42.9980 dc         1 CLA      0.016300
     83 HBC1       73.7153   56.4211   44.5485 dc         1 CLA      0.016300
     84 HBB2       80.9354   61.8988   45.9288 da         1 CLA      0.183000
     85 HBB1       81.3570   60.9009   44.4826 da         1 CLA      0.183000
     86 HBA2       80.3997   58.7804   33.3614 dc         1 CLA      0.029400
     87 HBA1       81.6305   58.7866   34.6665 dc         1 CLA      0.029400
     88 HAC2       72.3208   58.5080   44.5651 dc         1 CLA      0.029300
     89 HAC1       71.7821   58.1987   43.0025 dc         1 CLA      0.029300
     90 HAA2       78.6318   57.9695   34.6633 dc         1 CLA      0.028700
     91 HAA1       79.2792   59.5579   35.2348 dc         1 CLA      0.028700
     92 H203       84.2848   56.2291   48.2116 dc         1 CLA      0.065600
     93 H202       85.4686   55.1514   48.9924 dc         1 CLA      0.065600
     94 H201       85.0753   56.7286   49.7959 dc         1 CLA      0.065600
     95 H193       86.6614   59.1053   47.6457 dc         1 CLA      0.065600
     96 H192       84.9460   58.5923   47.5391 dc         1 CLA      0.065600
     97 H191       85.7411   58.8805   49.0390 dc         1 CLA      0.065600
     98 H172       85.5529   56.4430   46.1948 dc         1 CLA      0.027600
     99 H171       86.8178   55.3824   46.8569 dc         1 CLA      0.027600
    100 H162       88.4953   56.7451   46.5391 dc         1 CLA      0.002900
    101 H161       87.5966   58.0411   45.6413 dc         1 CLA      0.002900
    102 H152       86.9786   56.6237   44.0475 dc         1 CLA      0.029100
    103 H151       88.0029   55.2448   44.5393 dc         1 CLA      0.029100
    104 H143       90.5386   55.7243   44.7919 dc         1 CLA      0.063600
    105 H142       91.1930   56.9816   43.7927 dc         1 CLA      0.063600
    106 H141       90.3238   57.3163   45.3279 dc         1 CLA      0.063600
    107 H122       88.8541   55.1356   42.2521 dc         1 CLA      0.032500
    108 H121       90.0989   56.3177   41.9364 dc         1 CLA      0.032500
    109 H112       87.7937   57.8099   41.2594 dc         1 CLA      0.006600
    110 H111       86.8879   56.4660   41.6995 dc         1 CLA      0.006600
    111 H102       88.3358   54.9671   40.0437 dc         1 CLA      0.024100
    112 H101       88.8340   56.4193   39.4046 dc         1 CLA      0.024100
    113 HHD        72.9288   57.3788   40.7704 da         1 CLA      0.174300
    114 HHC        77.1363   60.9190   44.1296 da         1 CLA      0.136800
    115 HHB        81.3383   60.5174   39.3147 da         1 CLA      0.138300
    116 HBD        77.4406   56.4179   35.3252 dc         1 CLA      0.107700
    117 HAB        78.7765   62.7300   44.6586 da         1 CLA      0.155200
    118 H93        85.0704   57.2052   38.2882 dc         1 CLA      0.069500
    119 H92        85.9088   57.8974   39.6258 dc         1 CLA      0.069500
    120 H91        86.4987   58.0564   38.0512 dc         1 CLA      0.069500
    121 H8         85.9638   55.2919   39.6797 dc         1 CLA      0.029300
    122 H72        87.7600   54.3945   37.9925 dc         1 CLA      0.044400
    123 H71        87.1971   55.8011   36.8949 dc         1 CLA      0.044400
    124 H62        85.8073   53.1938   37.9769 dc         1 CLA      0.015600
    125 H61        86.1997   53.8062   36.3136 dc         1 CLA      0.015600
    126 H52        84.6320   55.5869   36.5143 dc         1 CLA      0.033200
    127 H51        84.2976   55.0439   38.2357 dc         1 CLA      0.033200
    128 H43        83.6952   52.1112   37.8629 dc         1 CLA      0.037000
    129 H42        82.7815   52.0404   36.3175 dc         1 CLA      0.037000
    130 H41        84.5916   51.9733   36.2279 dc         1 CLA      0.037000
    131 H3A        80.8772   59.7886   36.7603 dc         1 CLA      0.041100
    132 H2A        80.1103   56.9161   36.4467 dc         1 CLA      0.083100
    133 H2         81.5526   54.6975   36.5905 da         1 CLA      0.180900
    134 H18        87.2100   56.9037   48.6718 dc         1 CLA     -0.003900
    135 H13        88.9854   57.9074   43.4652 dc         1 CLA      0.019700
    136 H12        81.3128   54.2285   34.1848 dc         1 CLA      0.120400
    137 H11        83.1233   54.7507   33.9816 dc         1 CLA      0.120400
    138 C1         69.8673   61.4439   50.5899 Z1         2 LUT      0.509236
    139 C2         68.5964   60.9723   51.1063 Z2         2 LUT     -0.434695
    140 C3         67.6232   61.9612   51.7166 Z3         2 LUT      0.437453
    141 O3         67.9389   62.1079   53.0998 S1         2 LUT     -0.547129
    142 C4         67.7020   63.3440   51.0365 Z4         2 LUT     -0.468603
    143 C5         68.5519   63.5075   49.8156 Z5         2 LUT      0.279246
    144 C6         69.4261   62.5532   49.5479 Z6         2 LUT     -0.305473
    145 C7         70.0079   62.3357   48.1985 Z7         2 LUT      0.069402
    146 C8         71.2190   62.7690   47.7039 Z8         2 LUT     -0.191631
    147 C9         71.7220   62.6094   46.3835 Z9         2 LUT      0.196698
    148 C10        72.7613   63.3826   45.9223 Y1         2 LUT     -0.208611
    149 C11        73.4466   63.2089   44.6789 Y2         2 LUT      0.030784
    150 C12        74.6513   63.8584   44.3822 Y3         2 LUT     -0.220316
    151 C13        75.3697   63.8843   43.0526 Y4         2 LUT      0.215937
    152 C14        76.6306   64.5908   42.9887 Y5         2 LUT     -0.185793
    153 C15        77.7160   64.4793   42.0285 Y6         2 LUT     -0.057835
    154 C16        70.6020   60.2408   49.9388 Y7         2 LUT     -0.405615
    155 C17        70.7798   62.0515   51.7618 Y7         2 LUT     -0.405615
    156 C18        67.9249   64.4271   48.8349 Y9         2 LUT     -0.369639
    157 C19        71.1268   61.3713   45.5865 W1         2 LUT     -0.333362
    158 C20        74.8053   63.1703   41.8343 W2         2 LUT     -0.323439
    159 C21        88.5988   65.3791   35.7895 Z1         2 LUT      0.406104
    160 C22        89.4267   64.6802   34.6924 Z2         2 LUT     -0.404965
    161 C23        89.6761   65.5133   33.4502 Z3         2 LUT      0.391255
    162 O23        90.0535   64.5953   32.3591 S1         2 LUT     -0.528210
    163 C24        88.4789   66.3774   33.0562 W6         2 LUT     -0.258361
    164 C25        87.3763   66.5489   33.8170 Z5         2 LUT      0.133546
    165 C26        87.2174   65.8272   35.1562 W8         2 LUT     -0.147008
    166 C27        86.3460   66.6115   36.0620 Z7         2 LUT      0.023843
    167 C28        85.4954   66.0092   36.9008 Z8         2 LUT     -0.216987
    168 C29        84.8789   66.6620   38.0770 Z9         2 LUT      0.206524
    169 C30        83.9927   65.9079   38.8604 Y1         2 LUT     -0.215556
    170 C31        83.3295   66.1221   40.1696 Y2         2 LUT      0.025142
    171 C32        82.2405   65.3940   40.4573 Y3         2 LUT     -0.212209
    172 C33        81.2982   65.6958   41.4988 Y4         2 LUT      0.240937
    173 C34        80.1030   64.9874   41.4092 Y5         2 LUT     -0.218862
    174 C35        78.9327   65.0989   42.1649 Y6         2 LUT     -0.023547
    175 C36        89.5847   66.4917   36.3708 Y7         2 LUT     -0.393485
    176 C37        88.3285   64.3002   36.9408 Y7         2 LUT     -0.393485
    177 C38        86.1439   67.3255   33.3249 Y9         2 LUT     -0.387526
    178 C39        85.2477   68.0356   38.5889 W1         2 LUT     -0.322618
    179 C40        81.5694   66.5997   42.5404 W2         2 LUT     -0.358472
    180 H403       82.2306   67.4326   42.2523 R7         2 LUT      0.097720
    181 H402       80.7222   67.1898   42.9447 R7         2 LUT      0.097720
    182 H401       82.1018   66.0942   43.3220 R7         2 LUT      0.097720
    183 H393       84.6915   68.4082   39.4859 R4         2 LUT      0.082505
    184 H392       86.3227   68.1096   38.8091 R4         2 LUT      0.082505
    185 H391       85.0371   68.7389   37.7901 R4         2 LUT      0.082505
    186 H383       86.0266   68.3024   33.8418 R1         2 LUT      0.104030
    187 H382       86.3433   67.6306   32.2530 R1         2 LUT      0.104030
    188 H381       85.2626   66.6299   33.3967 R1         2 LUT      0.104030
    189 H373       89.2731   64.1980   37.4950 T4         2 LUT      0.089537
    190 H372       87.4529   64.5795   37.5878 T4         2 LUT      0.089537
    191 H371       88.0733   63.3176   36.5603 T4         2 LUT      0.089537
    192 H363       89.9415   67.1432   35.5462 T4         2 LUT      0.089537
    193 H362       89.0721   66.9985   37.1901 T4         2 LUT      0.089537
    194 H361       90.4974   66.0740   36.7663 T4         2 LUT      0.089537
    195 H222       90.4217   64.5236   35.1475 U2         2 LUT      0.127376
    196 H221       89.0031   63.6984   34.3543 U2         2 LUT      0.127376
    197 H203       74.2287   62.2490   42.1199 R7         2 LUT      0.087068
    198 H202       74.0450   63.8068   41.3842 R7         2 LUT      0.087068
    199 H201       75.5626   62.8528   41.0413 R7         2 LUT      0.087068
    200 H193       70.4753   60.7977   46.2288 R4         2 LUT      0.089716
    201 H192       70.5912   61.7347   44.6901 R4         2 LUT      0.089716
    202 H191       71.9074   60.7257   45.1853 R4         2 LUT      0.089716
    203 H183       66.8979   64.4656   48.9497 R1         2 LUT      0.094572
    204 H182       68.2482   65.4812   49.0042 R1         2 LUT      0.094572
    205 H181       68.0566   64.0634   47.8032 R1         2 LUT      0.094572
    206 H173       70.4877   63.0664   52.0656 T4         2 LUT      0.093752
    207 H172       70.7162   61.3706   52.6558 T4         2 LUT      0.093752
    208 H171       71.8522   62.2424   51.4786 T4         2 LUT      0.093752
    209 H163       71.6420   60.4510   49.7529 T4         2 LUT      0.093752
    210 H162       70.5964   59.4077   50.6934 T4         2 LUT      0.093752
    211 H161       70.1348   59.8759   49.0565 T4         2 LUT      0.093752
    212 HO3        67.1632   62.1433   53.7035 Q1         2 LUT      0.300121
    213 H8         71.9236   63.2869   48.4183 U7         2 LUT      0.080784
    214 H7         69.3368   62.0044   47.4313 U6         2 LUT      0.042190
    215 H42        66.6095   63.5858   50.8900 U5         2 LUT      0.145166
    216 H41        67.8937   64.0982   51.7639 U5         2 LUT      0.145166
    217 H35        78.9260   65.5761   43.0663 T3         2 LUT      0.077919
    218 H34        79.9299   64.2611   40.6303 T2         2 LUT      0.073626
    219 H32        81.8607   64.6515   39.6947 T1         2 LUT      0.092510
    220 H31        83.6433   66.9803   40.7961 U9         2 LUT      0.070048
    221 H30        83.6784   64.9303   38.3335 U8         2 LUT      0.085442
    222 H3         66.6718   61.6131   51.4192 U3         2 LUT     -0.031596
    223 H28        85.3095   64.9850   36.7868 U7         2 LUT      0.084728
    224 H27        86.5968   67.5991   36.2810 U6         2 LUT      0.087291
    225 H26        86.7774   64.8198   35.0057 Q6         2 LUT      0.075325
    226 H24        88.5967   66.9908   32.2037 Q5         2 LUT      0.094482
    227 H23        90.6514   66.0754   33.4910 U3         2 LUT     -0.024869
    228 H22        68.0277   60.5248   50.2605 U2         2 LUT      0.127376
    229 H21        68.7219   60.1662   51.8350 U2         2 LUT      0.127376
    230 H15        77.5614   63.7791   41.1860 T3         2 LUT      0.093200
    231 H14        76.8767   65.1582   43.9125 T2         2 LUT      0.068865
    232 H12        75.1696   64.5005   45.1669 T1         2 LUT      0.095507
    233 H11        73.0491   62.6585   43.8542 U9         2 LUT      0.068930
    234 H10        73.1117   64.0917   46.6627 U8         2 LUT      0.083911
    235 H1         90.3174   65.1780   31.5912 Q1         2 LUT      0.297311
@<TRIPOS>BOND
    1     6     1 1
    2     7     2 1
    3     8     3 1
    4     9     4 1
    5    11     4 1
    6    12     6 1
    7    13     9 1
    8    16     9 1
    9    25     5 1
   10    25    16 1
   11    26    10 1
   12    26    17 1
   13    27    18 1
   14    28    14 1
   15    28    19 1
   16    29    12 1
   17    30    13 1
   18    31    24 1
   19    32     1 1
   20    32    25 1
   21    33    21 1
   22    33    26 1
   23    34    22 1
   24    34    27 1
   25    35    23 1
   26    35    28 1
   27    36    12 1
   28    36    24 1
   29    37    13 1
   30    37    15 1
   31    38    31 1
   32    39    20 1
   33    39    32 1
   34    40     2 1
   35    40    33 1
   36    41     3 1
   37    41    34 1
   38    42     4 1
   39    42    35 1
   40    43    38 1
   41    44     5 1
   42    44    17 1
   43    44    39 1
   44    45    10 1
   45    45    18 1
   46    45    40 1
   47    46    19 1
   48    46    41 1
   49    47    14 1
   50    47    16 1
   51    47    42 1
   52    48    38 1
   53    49    48 1
   54    50    49 1
   55    51    50 1
   56    52    51 1
   57    53    51 1
   58    54    53 1
   59    55    54 1
   60    56    55 1
   61    57    56 1
   62    58    56 1
   63    59    58 1
   64    60    59 1
   65    61    60 1
   66    62    61 1
   67    63    61 1
   68    64    27 1
   69    64    46 1
   70    65     5 1
   71    65    10 1
   72    65    64 1
   73    65    14 1
   74    66    23 1
   75    67    23 1
   76    68    23 1
   77    69    22 1
   78    70    22 1
   79    71    22 1
   80    72    21 1
   81    73    21 1
   82    74    21 1
   83    75    20 1
   84    76    20 1
   85    77    20 1
   86    78    15 1
   87    79    15 1
   88    80    15 1
   89    81     8 1
   90    82     8 1
   91    83     8 1
   92    84     7 1
   93    85     7 1
   94    86     6 1
   95    87     6 1
   96    88     3 1
   97    89     3 1
   98    90     1 1
   99    91     1 1
  100    92    63 1
  101    93    63 1
  102    94    63 1
  103    95    62 1
  104    96    62 1
  105    97    62 1
  106    98    60 1
  107    99    60 1
  108   100    59 1
  109   101    59 1
  110   102    58 1
  111   103    58 1
  112   104    57 1
  113   105    57 1
  114   106    57 1
  115   107    55 1
  116   108    55 1
  117   109    54 1
  118   110    54 1
  119   111    53 1
  120   112    53 1
  121   113    19 1
  122   114    18 1
  123   115    17 1
  124   116     9 1
  125   117     2 1
  126   118    52 1
  127   119    52 1
  128   120    52 1
  129   121    51 1
  130   122    50 1
  131   123    50 1
  132   124    49 1
  133   125    49 1
  134   126    48 1
  135   127    48 1
  136   128    43 1
  137   129    43 1
  138   130    43 1
  139   131    39 1
  140   132    32 1
  141   133    31 1
  142   134    61 1
  143   135    56 1
  144   136    24 1
  145   137    24 1
  146   139   138 1
  147   140   139 1
  148   141   140 1
  149   142   140 1
  150   143   142 1
  151   144   138 1
  152   144   143 1
  153   145   144 1
  154   146   145 1
  155   147   146 1
  156   148   147 1
  157   149   148 1
  158   150   149 1
  159   151   150 1
  160   152   151 1
  161   153   152 1
  162   154   138 1
  163   155   138 1
  164   156   143 1
  165   157   147 1
  166   158   151 1
  167   160   159 1
  168   161   160 1
  169   162   161 1
  170   163   161 1
  171   164   163 1
  172   165   159 1
  173   165   164 1
  174   166   165 1
  175   167   166 1
  176   168   167 1
  177   169   168 1
  178   170   169 1
  179   171   170 1
  180   172   171 1
  181   173   172 1
  182   174   153 1
  183   174   173 1
  184   175   159 1
  185   176   159 1
  186   177   164 1
  187   178   168 1
  188   179   172 1
  189   180   179 1
  190   181   179 1
  191   182   179 1
  192   183   178 1
  193   184   178 1
  194   185   178 1
  195   186   177 1
  196   187   177 1
  197   188   177 1
  198   189   176 1
  199   190   176 1
  200   191   176 1
  201   192   175 1
  202   193   175 1
  203   194   175 1
  204   195   160 1
  205   196   160 1
  206   197   158 1
  207   198   158 1
  208   199   158 1
  209   200   157 1
  210   201   157 1
  211   202   157 1
  212   203   156 1
  213   204   156 1
  214   205   156 1
  215   206   155 1
  216   207   155 1
  217   208   155 1
  218   209   154 1
  219   210   154 1
  220   211   154 1
  221   212   141 1
  222   213   146 1
  223   214   145 1
  224   215   142 1
  225   216   142 1
  226   217   174 1
  227   218   173 1
  228   219   171 1
  229   220   170 1
  230   221   169 1
  231   222   140 1
  232   223   167 1
  233   224   166 1
  234   225   165 1
  235   226   163 1
  236   227   161 1
  237   228   139 1
  238   229   139 1
  239   230   153 1
  240   231   152 1
  241   232   150 1
  242   233   149 1
  243   234   148 1
  244   235   162 1
  245   65    153 1
  246   65    174 1
@<TRIPOS>SUBSTRUCTURE
      1 CLA               1 ****               0 ****  **** 
      2 LUT             138 ****               0 ****  **** 
