@<TRIPOS>MOLECULE
Cpptraj generated mol2 file.
  235   246     2     0     0
SMALL
USER_CHARGES


@<TRIPOS>ATOM
      1 CAA        78.0024   58.0114   34.9301 a2         1 CLA     -0.055900
      2 CAB        77.6252   61.6576   44.0424 c8         1 CLA     -0.148500
      3 CAC        70.8578   57.5696   43.1944 a2         1 CLA     -0.012600
      4 CAD        73.7448   55.3665   36.1389 ck         1 CLA      0.398800
      5 NA         76.8773   58.4525   38.2889 ns         1 CLA     -0.225500
      6 CBA        79.1474   57.9208   33.9546 a2         1 CLA     -0.135000
      7 CBB        78.8403   61.8346   44.6523 c0         1 CLA     -0.395200
      8 CBC        71.0770   56.1557   43.5559 a3         1 CLA     -0.037700
      9 CBD        75.1993   55.9713   35.7966 a1         1 CLA     -0.053900
     10 NB         76.5901   60.0119   40.8479 nm         1 CLA     -0.295700
     11 OBD        73.1379   54.4887   35.4238 o2         1 CLA     -0.494600
     12 CGA        79.8735   56.6678   33.7127 c4         1 CLA      0.827000
     13 CGD        76.2655   54.8590   35.5989 c4         1 CLA      0.655300
     14 ND         73.9701   57.6375   38.7802 nm         1 CLA     -0.291600
     15 CED        77.2722   52.8728   36.7327 a3         1 CLA      0.005400
     16 CHA        75.5413   56.9459   36.8950 cs         1 CLA     -0.123800
     17 CHB        78.5453   59.8442   39.4101 aa         1 CLA     -0.291900
     18 CHC        75.1898   60.1437   42.8489 aa         1 CLA     -0.090400
     19 CHD        72.1145   57.4436   40.3701 aa         1 CLA     -0.052000
     20 CMA        80.2001   57.5504   38.1181 a3         1 CLA     -0.230700
     21 CMB        80.0473   61.4585   41.5275 a3         1 CLA     -0.180800
     22 CMC        72.9734   59.5543   44.8823 a3         1 CLA     -0.134000
     23 CMD        70.9158   55.5198   38.2643 a3         1 CLA     -0.141100
     24 C1         81.6511   55.2494   34.6228 a2         1 CLA      0.023000
     25 C1A        76.7326   57.6426   37.1394 ac         1 CLA     -0.015100
     26 C1B        77.8923   60.2984   40.5034 cr         1 CLA      0.054700
     27 C1C        74.0192   59.4869   42.5385 cn         1 CLA     -0.005600
     28 C1D        72.6728   57.2028   39.1111 ap         1 CLA     -0.047300
     29 O1A        79.7237   55.9231   32.7934 o2         1 CLA     -0.610800
     30 O1D        76.9744   54.6292   34.6431 o2         1 CLA     -0.558200
     31 C2         82.2601   54.9336   35.9388 c8         1 CLA     -0.325100
     32 C2A        78.0907   57.5367   36.4701 a1         1 CLA      0.098600
     33 C2B        78.5866   61.0358   41.5991 cb         1 CLA      0.088500
     34 C2C        73.0351   59.1066   43.4430 cb         1 CLA      0.053700
     35 C2D        72.2483   56.2048   38.1936 cb         1 CLA      0.058900
     36 O2A        80.8004   56.4803   34.7226 o1         1 CLA     -0.437200
     37 O2D        76.3160   54.0859   36.7396 o1         1 CLA     -0.357600
     38 C3         82.5552   53.6595   36.3662 c5         1 CLA      0.031200
     39 C3A        79.0460   58.3491   37.3876 a1         1 CLA      0.166800
     40 C3B        77.5850   61.1430   42.6487 cb         1 CLA      0.035000
     41 C3C        72.1101   58.2935   42.7004 cb         1 CLA     -0.089900
     42 C3D        73.3112   56.0746   37.3006 cb         1 CLA     -0.035900
     43 C4         81.6771   52.9309   37.3400 a3         1 CLA     -0.053300
     44 C4A        78.1059   58.9846   38.4085 ac         1 CLA      0.001800
     45 C4B        76.3882   60.4118   42.1392 cn         1 CLA     -0.020900
     46 C4C        72.6666   58.1317   41.4460 cr         1 CLA     -0.044400
     47 C4D        74.3604   56.9636   37.6631 c6         1 CLA     -0.046000
     48 C5         84.0324   53.1861   36.3164 a2         1 CLA     -0.070400
     49 C6         84.9605   54.4420   36.5477 a2         1 CLA      0.043900
     50 C7         85.1020   54.7535   38.0696 a2         1 CLA     -0.150000
     51 C8         86.0608   55.9361   38.4381 a1         1 CLA      0.064200
     52 C9         87.4538   55.7397   37.9314 a3         1 CLA     -0.259300
     53 C10        86.0879   56.2576   39.9673 a2         1 CLA     -0.071900
     54 C11        84.7249   56.6470   40.5585 a2         1 CLA      0.014500
     55 C12        84.8237   57.6939   41.7589 a2         1 CLA     -0.112100
     56 C13        85.4380   57.1177   43.0628 a1         1 CLA      0.089200
     57 C14        85.1555   55.6312   43.3512 a3         1 CLA     -0.239100
     58 C15        85.2234   58.0589   44.2901 a2         1 CLA     -0.102200
     59 C16        83.8121   58.3212   44.8463 a2         1 CLA      0.023900
     60 C17        83.8747   59.2207   46.0750 a2         1 CLA     -0.105700
     61 C18        82.6877   60.1788   46.3180 a1         1 CLA      0.206800
     62 C19        81.4112   59.4173   46.7459 a3         1 CLA     -0.280100
     63 C20        82.9844   61.2298   47.3968 a3         1 CLA     -0.280100
     64 NC         73.8058   58.8823   41.3712 nx         1 CLA     -0.309200
     65 MG         75.2208   58.9790   39.7152 mg         1 CLA      0.895000
     66 HMD3       70.1386   56.1208   37.7223 dc         1 CLA      0.064300
     67 HMD2       70.9426   54.6529   37.6245 dc         1 CLA      0.064300
     68 HMD1       70.5933   55.2011   39.2442 dc         1 CLA      0.064300
     69 HMC3       73.9152   59.3408   45.3004 dc         1 CLA      0.052100
     70 HMC2       72.7788   60.5587   45.1783 dc         1 CLA      0.052100
     71 HMC1       72.1686   59.0270   45.3503 dc         1 CLA      0.052100
     72 HMB3       80.4045   61.6053   40.4996 dc         1 CLA      0.063600
     73 HMB2       80.1263   62.4787   41.9391 dc         1 CLA      0.063600
     74 HMB1       80.7418   60.7582   41.9724 dc         1 CLA      0.063600
     75 HMA3       79.6867   56.9089   38.8786 dc         1 CLA      0.058300
     76 HMA2       80.6027   56.9411   37.3510 dc         1 CLA      0.058300
     77 HMA1       81.0077   58.1178   38.5512 dc         1 CLA      0.058300
     78 HED3       76.8299   52.1535   36.1063 dc         1 CLA      0.079300
     79 HED2       78.3120   53.1371   36.3678 dc         1 CLA      0.079300
     80 HED1       77.4930   52.5177   37.6856 dc         1 CLA      0.079300
     81 HBC3       71.9706   56.1023   44.0563 dc         1 CLA      0.016300
     82 HBC2       70.2772   55.7877   44.1335 dc         1 CLA      0.016300
     83 HBC1       71.1700   55.5423   42.6253 dc         1 CLA      0.016300
     84 HBB2       78.9491   62.0488   45.6969 da         1 CLA      0.183000
     85 HBB1       79.7980   61.5814   44.1665 da         1 CLA      0.183000
     86 HBA2       78.7221   58.2514   33.0128 dc         1 CLA      0.029400
     87 HBA1       79.8684   58.7085   34.2170 dc         1 CLA      0.029400
     88 HAC2       70.3828   58.0125   43.9702 dc         1 CLA      0.029300
     89 HAC1       70.0887   57.5670   42.4384 dc         1 CLA      0.029300
     90 HAA2       77.2185   57.3792   34.4959 dc         1 CLA      0.028700
     91 HAA1       77.6468   58.9900   34.9070 dc         1 CLA      0.028700
     92 H203       83.0648   60.7402   48.3208 dc         1 CLA      0.065600
     93 H202       83.9159   61.7096   47.1503 dc         1 CLA      0.065600
     94 H201       82.1293   61.9077   47.4491 dc         1 CLA      0.065600
     95 H193       81.1173   58.5350   46.2424 dc         1 CLA      0.065600
     96 H192       81.5417   59.2062   47.7915 dc         1 CLA      0.065600
     97 H191       80.5832   60.1007   46.6245 dc         1 CLA      0.065600
     98 H172       84.0649   58.4687   46.8686 dc         1 CLA      0.027600
     99 H171       84.8841   59.7324   46.0983 dc         1 CLA      0.027600
    100 H162       83.1329   58.8509   44.1427 dc         1 CLA      0.002900
    101 H161       83.3662   57.3498   44.9402 dc         1 CLA      0.002900
    102 H152       85.9042   57.6819   45.0503 dc         1 CLA      0.029100
    103 H151       85.6011   59.0176   43.9262 dc         1 CLA      0.029100
    104 H143       85.4105   55.3814   44.3144 dc         1 CLA      0.063600
    105 H142       84.0438   55.5320   43.2146 dc         1 CLA      0.063600
    106 H141       85.7598   54.9873   42.6657 dc         1 CLA      0.063600
    107 H122       85.4891   58.5102   41.4345 dc         1 CLA      0.032500
    108 H121       83.8842   58.1111   41.9638 dc         1 CLA      0.032500
    109 H112       84.0334   57.0985   39.8828 dc         1 CLA      0.006600
    110 H111       84.2367   55.7334   40.9516 dc         1 CLA      0.006600
    111 H102       86.5253   55.4549   40.5850 dc         1 CLA      0.024100
    112 H101       86.7039   57.1476   40.0643 dc         1 CLA      0.024100
    113 HHD        71.2625   56.8083   40.6225 da         1 CLA      0.174300
    114 HHC        75.1148   60.6256   43.9023 da         1 CLA      0.136800
    115 HHB        79.6000   60.0601   39.3126 da         1 CLA      0.138300
    116 HBD        75.0810   56.5203   34.9230 dc         1 CLA      0.107700
    117 HAB        76.8060   61.7774   44.7240 da         1 CLA      0.155200
    118 H93        87.9312   54.8629   38.4202 dc         1 CLA      0.069500
    119 H92        87.5808   55.5876   36.8151 dc         1 CLA      0.069500
    120 H91        88.0395   56.6535   38.0570 dc         1 CLA      0.069500
    121 H8         85.6561   56.8596   37.9421 dc         1 CLA      0.029300
    122 H72        84.1284   54.9508   38.5421 dc         1 CLA      0.044400
    123 H71        85.5208   53.8389   38.4777 dc         1 CLA      0.044400
    124 H62        86.0152   54.2672   36.2868 dc         1 CLA      0.015600
    125 H61        84.6104   55.3225   36.0724 dc         1 CLA      0.015600
    126 H52        84.2293   52.3937   37.0215 dc         1 CLA      0.033200
    127 H51        84.1331   52.7379   35.3755 dc         1 CLA      0.033200
    128 H43        81.0826   52.2216   36.8047 dc         1 CLA      0.037000
    129 H42        82.2707   52.5867   38.1345 dc         1 CLA      0.037000
    130 H41        80.9618   53.5805   37.7965 dc         1 CLA      0.037000
    131 H3A        79.5303   59.1420   36.9129 dc         1 CLA      0.041100
    132 H2A        78.3860   56.5136   36.5847 dc         1 CLA      0.083100
    133 H2         82.4478   55.8385   36.6125 da         1 CLA      0.180900
    134 H18        82.3875   60.6598   45.3884 dc         1 CLA     -0.003900
    135 H13        86.5326   57.0363   42.7791 dc         1 CLA      0.019700
    136 H12        80.8720   54.4802   34.4543 dc         1 CLA      0.120400
    137 H11        82.4041   55.2996   33.7487 dc         1 CLA      0.120400
    138 C1         68.1046   61.2720   50.3254 Z1         2 LUT      0.509236
    139 C2         66.7380   61.1684   51.1073 Z2         2 LUT     -0.434695
    140 C3         65.8674   62.4283   51.3180 Z3         2 LUT      0.437453
    141 O3         65.6433   62.7268   52.7018 S1         2 LUT     -0.547129
    142 C4         66.4483   63.6583   50.6145 Z4         2 LUT     -0.468603
    143 C5         67.0180   63.2810   49.2980 Z5         2 LUT      0.279246
    144 C6         67.7942   62.2192   49.1765 Z6         2 LUT     -0.305473
    145 C7         68.1805   61.8305   47.7659 Z7         2 LUT      0.069402
    146 C8         69.1971   62.3370   47.0652 Z8         2 LUT     -0.191631
    147 C9         69.6519   61.9667   45.6866 Z9         2 LUT      0.196698
    148 C10        70.7510   62.5874   45.1818 Y1         2 LUT     -0.208611
    149 C11        71.3312   62.3121   43.9622 Y2         2 LUT      0.030784
    150 C12        72.3826   63.0793   43.5038 Y3         2 LUT     -0.220316
    151 C13        73.2288   63.0566   42.3165 Y4         2 LUT      0.215937
    152 C14        74.4363   63.6754   42.4217 Y5         2 LUT     -0.185793
    153 C15        75.4891   63.7380   41.4627 Y6         2 LUT     -0.057835
    154 C16        68.5129   59.9251   49.9021 Y7         2 LUT     -0.405615
    155 C17        69.1204   61.8774   51.3442 Y7         2 LUT     -0.405615
    156 C18        66.3729   64.0234   48.0680 Y9         2 LUT     -0.369639
    157 C19        69.0103   60.7136   45.0701 W1         2 LUT     -0.333362
    158 C20        72.8588   62.2586   41.0120 W2         2 LUT     -0.323439
    159 C21        87.0813   64.9997   35.3822 Z1         2 LUT      0.406104
    160 C22        87.8638   64.6353   34.0280 Z2         2 LUT     -0.404965
    161 C23        87.5947   65.5586   32.9093 Z3         2 LUT      0.391255
    162 O23        88.2819   65.1516   31.6959 S1         2 LUT     -0.528210
    163 C24        86.1301   65.9374   32.7526 W6         2 LUT     -0.258361
    164 C25        85.2742   65.9663   33.8008 Z5         2 LUT      0.133546
    165 C26        85.5309   65.3796   35.2062 W8         2 LUT     -0.147008
    166 C27        84.9049   66.1471   36.3789 Z7         2 LUT      0.023843
    167 C28        83.7043   65.8816   36.8709 Z8         2 LUT     -0.216987
    168 C29        83.0420   66.3247   38.0848 Z9         2 LUT      0.206524
    169 C30        82.0062   65.5775   38.6511 Y1         2 LUT     -0.215556
    170 C31        81.1812   65.7849   39.8109 Y2         2 LUT      0.025142
    171 C32        80.1015   64.9726   39.9574 Y3         2 LUT     -0.212209
    172 C33        79.1115   65.1155   41.0229 Y4         2 LUT      0.240937
    173 C34        77.9367   64.3949   40.8798 Y5         2 LUT     -0.218862
    174 C35        76.7519   64.2897   41.7563 Y6         2 LUT     -0.023547
    175 C36        87.8900   66.1502   36.0094 Y7         2 LUT     -0.393485
    176 C37        87.2188   63.7036   36.2339 Y7         2 LUT     -0.393485
    177 C38        83.9669   66.6665   33.6961 Y9         2 LUT     -0.387526
    178 C39        83.5964   67.5311   38.7841 W1         2 LUT     -0.322618
    179 C40        79.4139   65.7608   42.3161 W2         2 LUT     -0.358472
    180 H403       80.3860   66.1958   42.3635 R7         2 LUT      0.097720
    181 H402       78.6934   66.6648   42.4605 R7         2 LUT      0.097720
    182 H401       79.2704   65.1584   43.2065 R7         2 LUT      0.097720
    183 H393       83.0534   67.9647   39.6308 R4         2 LUT      0.082505
    184 H392       84.5600   67.2166   39.1132 R4         2 LUT      0.082505
    185 H391       83.7497   68.3471   38.0982 R4         2 LUT      0.082505
    186 H383       83.9090   67.2451   32.7473 R1         2 LUT      0.104030
    187 H382       83.0778   66.1038   33.6581 R1         2 LUT      0.104030
    188 H381       83.8235   67.5205   34.4522 R1         2 LUT      0.104030
    189 H373       87.0059   63.9988   37.2775 T4         2 LUT      0.089537
    190 H372       86.6580   62.8401   35.8245 T4         2 LUT      0.089537
    191 H371       88.2810   63.4135   36.3115 T4         2 LUT      0.089537
    192 H363       88.9456   65.7552   36.1875 T4         2 LUT      0.089537
    193 H362       88.0023   67.0370   35.4074 T4         2 LUT      0.089537
    194 H361       87.5349   66.5056   37.0077 T4         2 LUT      0.089537
    195 H222       88.9458   64.5067   34.1784 U2         2 LUT      0.127376
    196 H221       87.5962   63.7038   33.6727 U2         2 LUT      0.127376
    197 H203       73.4872   61.3553   40.9562 R7         2 LUT      0.087068
    198 H202       71.7554   62.0253   40.9014 R7         2 LUT      0.087068
    199 H201       73.2354   62.8781   40.1187 R7         2 LUT      0.087068
    200 H193       69.2011   59.7947   45.5793 R4         2 LUT      0.089716
    201 H192       67.8837   60.8703   45.1141 R4         2 LUT      0.089716
    202 H191       69.2519   60.4162   44.0036 R4         2 LUT      0.089716
    203 H183       66.2188   63.3361   47.2609 R1         2 LUT      0.094572
    204 H182       65.4547   64.5539   48.3352 R1         2 LUT      0.094572
    205 H181       67.1857   64.6808   47.5916 R1         2 LUT      0.094572
    206 H173       69.0869   62.9177   51.2826 T4         2 LUT      0.093752
    207 H172       68.9391   61.6589   52.4066 T4         2 LUT      0.093752
    208 H171       70.1497   61.4701   51.2200 T4         2 LUT      0.093752
    209 H163       68.6054   59.1981   50.6383 T4         2 LUT      0.093752
    210 H162       67.8854   59.4561   49.1594 T4         2 LUT      0.093752
    211 H161       69.5141   60.0200   49.5170 T4         2 LUT      0.093752
    212 HO3        65.0143   62.1621   53.0289 Q1         2 LUT      0.300121
    213 H8         69.7210   63.1557   47.6161 U7         2 LUT      0.080784
    214 H7         67.5600   61.0665   47.3439 U6         2 LUT      0.042190
    215 H42        65.6865   64.4822   50.5768 U5         2 LUT      0.145166
    216 H41        67.1829   64.0257   51.2919 U5         2 LUT      0.145166
    217 H35        76.7036   64.7675   42.7020 T3         2 LUT      0.077919
    218 H34        77.7342   63.6961   40.0532 T2         2 LUT      0.073626
    219 H32        79.8800   64.2358   39.1971 T1         2 LUT      0.092510
    220 H31        81.4560   66.5602   40.5376 U9         2 LUT      0.070048
    221 H30        81.6299   64.7816   38.0278 U8         2 LUT      0.085442
    222 H3         64.9543   62.2235   50.7213 U3         2 LUT     -0.031596
    223 H28        83.1646   65.1410   36.3798 U7         2 LUT      0.084728
    224 H27        85.5210   66.9427   36.8436 U6         2 LUT      0.087291
    225 H26        85.0937   64.3620   34.9822 Q6         2 LUT      0.075325
    226 H24        85.8690   66.3565   31.8148 Q5         2 LUT      0.094482
    227 H23        88.0239   66.5456   33.1744 U3         2 LUT     -0.024869
    228 H22        66.0813   60.5592   50.5144 U2         2 LUT      0.127376
    229 H21        66.8335   60.6447   52.0474 U2         2 LUT      0.127376
    230 H15        75.3447   63.1610   40.5109 T3         2 LUT      0.093200
    231 H14        74.7380   64.1823   43.3549 T2         2 LUT      0.068865
    232 H12        72.7449   63.7726   44.2892 T1         2 LUT      0.095507
    233 H11        70.9291   61.5974   43.3209 U9         2 LUT      0.068930
    234 H10        71.4067   63.1156   45.7868 U8         2 LUT      0.083911
    235 H1         87.7625   64.5362   31.2248 Q1         2 LUT      0.297311
@<TRIPOS>BOND
    1     6     1 1
    2     7     2 1
    3     8     3 1
    4     9     4 1
    5    11     4 1
    6    12     6 1
    7    13     9 1
    8    16     9 1
    9    25     5 1
   10    25    16 1
   11    26    10 1
   12    26    17 1
   13    27    18 1
   14    28    14 1
   15    28    19 1
   16    29    12 1
   17    30    13 1
   18    31    24 1
   19    32     1 1
   20    32    25 1
   21    33    21 1
   22    33    26 1
   23    34    22 1
   24    34    27 1
   25    35    23 1
   26    35    28 1
   27    36    12 1
   28    36    24 1
   29    37    13 1
   30    37    15 1
   31    38    31 1
   32    39    20 1
   33    39    32 1
   34    40     2 1
   35    40    33 1
   36    41     3 1
   37    41    34 1
   38    42     4 1
   39    42    35 1
   40    43    38 1
   41    44     5 1
   42    44    17 1
   43    44    39 1
   44    45    10 1
   45    45    18 1
   46    45    40 1
   47    46    19 1
   48    46    41 1
   49    47    14 1
   50    47    16 1
   51    47    42 1
   52    48    38 1
   53    49    48 1
   54    50    49 1
   55    51    50 1
   56    52    51 1
   57    53    51 1
   58    54    53 1
   59    55    54 1
   60    56    55 1
   61    57    56 1
   62    58    56 1
   63    59    58 1
   64    60    59 1
   65    61    60 1
   66    62    61 1
   67    63    61 1
   68    64    27 1
   69    64    46 1
   70    65     5 1
   71    65    10 1
   72    65    64 1
   73    65    14 1
   74    66    23 1
   75    67    23 1
   76    68    23 1
   77    69    22 1
   78    70    22 1
   79    71    22 1
   80    72    21 1
   81    73    21 1
   82    74    21 1
   83    75    20 1
   84    76    20 1
   85    77    20 1
   86    78    15 1
   87    79    15 1
   88    80    15 1
   89    81     8 1
   90    82     8 1
   91    83     8 1
   92    84     7 1
   93    85     7 1
   94    86     6 1
   95    87     6 1
   96    88     3 1
   97    89     3 1
   98    90     1 1
   99    91     1 1
  100    92    63 1
  101    93    63 1
  102    94    63 1
  103    95    62 1
  104    96    62 1
  105    97    62 1
  106    98    60 1
  107    99    60 1
  108   100    59 1
  109   101    59 1
  110   102    58 1
  111   103    58 1
  112   104    57 1
  113   105    57 1
  114   106    57 1
  115   107    55 1
  116   108    55 1
  117   109    54 1
  118   110    54 1
  119   111    53 1
  120   112    53 1
  121   113    19 1
  122   114    18 1
  123   115    17 1
  124   116     9 1
  125   117     2 1
  126   118    52 1
  127   119    52 1
  128   120    52 1
  129   121    51 1
  130   122    50 1
  131   123    50 1
  132   124    49 1
  133   125    49 1
  134   126    48 1
  135   127    48 1
  136   128    43 1
  137   129    43 1
  138   130    43 1
  139   131    39 1
  140   132    32 1
  141   133    31 1
  142   134    61 1
  143   135    56 1
  144   136    24 1
  145   137    24 1
  146   139   138 1
  147   140   139 1
  148   141   140 1
  149   142   140 1
  150   143   142 1
  151   144   138 1
  152   144   143 1
  153   145   144 1
  154   146   145 1
  155   147   146 1
  156   148   147 1
  157   149   148 1
  158   150   149 1
  159   151   150 1
  160   152   151 1
  161   153   152 1
  162   154   138 1
  163   155   138 1
  164   156   143 1
  165   157   147 1
  166   158   151 1
  167   160   159 1
  168   161   160 1
  169   162   161 1
  170   163   161 1
  171   164   163 1
  172   165   159 1
  173   165   164 1
  174   166   165 1
  175   167   166 1
  176   168   167 1
  177   169   168 1
  178   170   169 1
  179   171   170 1
  180   172   171 1
  181   173   172 1
  182   174   153 1
  183   174   173 1
  184   175   159 1
  185   176   159 1
  186   177   164 1
  187   178   168 1
  188   179   172 1
  189   180   179 1
  190   181   179 1
  191   182   179 1
  192   183   178 1
  193   184   178 1
  194   185   178 1
  195   186   177 1
  196   187   177 1
  197   188   177 1
  198   189   176 1
  199   190   176 1
  200   191   176 1
  201   192   175 1
  202   193   175 1
  203   194   175 1
  204   195   160 1
  205   196   160 1
  206   197   158 1
  207   198   158 1
  208   199   158 1
  209   200   157 1
  210   201   157 1
  211   202   157 1
  212   203   156 1
  213   204   156 1
  214   205   156 1
  215   206   155 1
  216   207   155 1
  217   208   155 1
  218   209   154 1
  219   210   154 1
  220   211   154 1
  221   212   141 1
  222   213   146 1
  223   214   145 1
  224   215   142 1
  225   216   142 1
  226   217   174 1
  227   218   173 1
  228   219   171 1
  229   220   170 1
  230   221   169 1
  231   222   140 1
  232   223   167 1
  233   224   166 1
  234   225   165 1
  235   226   163 1
  236   227   161 1
  237   228   139 1
  238   229   139 1
  239   230   153 1
  240   231   152 1
  241   232   150 1
  242   233   149 1
  243   234   148 1
  244   235   162 1
  245   65    153 1
  246   65    174 1
@<TRIPOS>SUBSTRUCTURE
      1 CLA               1 ****               0 ****  **** 
      2 LUT             138 ****               0 ****  **** 
