@<TRIPOS>MOLECULE
Cpptraj generated mol2 file.
  235   246     2     0     0
SMALL
USER_CHARGES


@<TRIPOS>ATOM
      1 CAA        79.2481   57.5487   34.5221 a2         1 CLA     -0.055900
      2 CAB        79.4673   61.5895   43.2465 c8         1 CLA     -0.148500
      3 CAC        72.4451   57.4893   43.0830 a2         1 CLA     -0.012600
      4 CAD        75.1603   54.9298   35.7908 ck         1 CLA      0.398800
      5 NA         78.2646   57.9755   37.8789 ns         1 CLA     -0.225500
      6 CBA        80.4872   57.4698   33.5946 a2         1 CLA     -0.135000
      7 CBB        80.7510   61.7294   43.7938 c0         1 CLA     -0.395200
      8 CBC        72.4997   55.9333   43.0189 a3         1 CLA     -0.037700
      9 CBD        76.6082   55.4669   35.5227 a1         1 CLA     -0.053900
     10 NB         78.1994   59.4794   40.5152 nm         1 CLA     -0.295700
     11 OBD        74.6770   54.0408   35.0733 o2         1 CLA     -0.494600
     12 CGA        80.8443   56.1028   33.0556 c4         1 CLA      0.827000
     13 CGD        77.5197   54.3550   35.5896 c4         1 CLA      0.655300
     14 ND         75.3856   57.2664   38.5045 nm         1 CLA     -0.291600
     15 CED        78.5795   52.7392   36.9925 a3         1 CLA      0.005400
     16 CHA        76.8800   56.5458   36.5935 cs         1 CLA     -0.123800
     17 CHB        79.9618   59.5635   38.7424 aa         1 CLA     -0.291900
     18 CHC        76.7906   60.0071   42.4960 aa         1 CLA     -0.090400
     19 CHD        73.5826   57.1029   40.1217 aa         1 CLA     -0.052000
     20 CMA        81.7473   57.6481   37.1103 a3         1 CLA     -0.230700
     21 CMB        81.2173   61.6460   40.6626 a3         1 CLA     -0.180800
     22 CMC        74.6392   59.1409   44.6918 a3         1 CLA     -0.134000
     23 CMD        72.4377   55.0265   37.8747 a3         1 CLA     -0.141100
     24 C1         81.5795   53.9684   33.8253 a2         1 CLA      0.023000
     25 C1A        78.0691   57.1784   36.8186 ac         1 CLA     -0.015100
     26 C1B        79.4176   59.9469   39.9925 cr         1 CLA      0.054700
     27 C1C        75.7241   59.1482   42.2184 cn         1 CLA     -0.005600
     28 C1D        74.1594   56.7393   38.8653 ap         1 CLA     -0.047300
     29 O1A        80.7102   55.6728   31.9169 o2         1 CLA     -0.610800
     30 O1D        78.3208   53.9222   34.7501 o2         1 CLA     -0.558200
     31 C2         82.0021   53.1967   35.0511 c8         1 CLA     -0.325100
     32 C2A        79.4075   57.1176   36.0124 a1         1 CLA      0.098600
     33 C2B        79.9934   60.9099   40.8872 cb         1 CLA      0.088500
     34 C2C        74.6831   58.7485   43.1885 cb         1 CLA      0.053700
     35 C2D        73.6992   55.7671   37.9011 cb         1 CLA      0.058900
     36 O2A        81.3505   55.4153   34.1658 o1         1 CLA     -0.437200
     37 O2D        77.5374   53.7952   36.8544 o1         1 CLA     -0.357600
     38 C3         83.1375   52.4487   35.1620 c5         1 CLA      0.031200
     39 C3A        80.3469   58.1349   36.6355 a1         1 CLA      0.166800
     40 C3B        79.1686   60.9094   41.9901 cb         1 CLA      0.035000
     41 C3C        73.7080   58.0247   42.4541 cb         1 CLA     -0.089900
     42 C3D        74.7200   55.6155   37.0188 cb         1 CLA     -0.035900
     43 C4         83.2377   51.0448   34.7433 a3         1 CLA     -0.053300
     44 C4A        79.4803   58.5741   37.8314 ac         1 CLA      0.001800
     45 C4B        77.9637   60.1175   41.6946 cn         1 CLA     -0.020900
     46 C4C        74.2250   57.9123   41.1071 cr         1 CLA     -0.044400
     47 C4D        75.6800   56.5913   37.3823 c6         1 CLA     -0.046000
     48 C5         84.4358   53.0527   35.4621 a2         1 CLA     -0.070400
     49 C6         84.8416   53.0875   36.9304 a2         1 CLA      0.043900
     50 C7         85.9962   54.0582   37.2277 a2         1 CLA     -0.150000
     51 C8         85.8990   55.0105   38.3782 a1         1 CLA      0.064200
     52 C9         84.9015   56.1578   38.0766 a3         1 CLA     -0.259300
     53 C10        87.3155   55.5295   38.7667 a2         1 CLA     -0.071900
     54 C11        87.5138   56.0960   40.1496 a2         1 CLA      0.014500
     55 C12        87.2145   55.1413   41.2737 a2         1 CLA     -0.112100
     56 C13        87.5145   55.7096   42.7360 a1         1 CLA      0.089200
     57 C14        87.2112   54.6451   43.8394 a3         1 CLA     -0.239100
     58 C15        86.9025   57.0977   43.1158 a2         1 CLA     -0.102200
     59 C16        85.3588   56.9713   43.4929 a2         1 CLA      0.023900
     60 C17        85.1132   57.0771   45.0101 a2         1 CLA     -0.105700
     61 C18        83.7156   57.5933   45.5189 a1         1 CLA      0.206800
     62 C19        83.3996   57.1916   47.0493 a3         1 CLA     -0.280100
     63 C20        83.5041   59.0828   45.2998 a3         1 CLA     -0.280100
     64 NC         75.4639   58.5825   41.0379 nx         1 CLA     -0.309200
     65 MG         76.7515   58.4652   39.4561 mg         1 CLA      0.895000
     66 HMD3       72.5596   54.1787   37.2753 dc         1 CLA      0.064300
     67 HMD2       72.1736   54.5718   38.8834 dc         1 CLA      0.064300
     68 HMD1       71.5481   55.5117   37.5878 dc         1 CLA      0.064300
     69 HMC3       74.1655   58.3145   45.1981 dc         1 CLA      0.052100
     70 HMC2       75.6728   59.2606   45.0857 dc         1 CLA      0.052100
     71 HMC1       74.0190   59.9537   45.0340 dc         1 CLA      0.052100
     72 HMB3       81.6372   62.3793   41.3930 dc         1 CLA      0.063600
     73 HMB2       81.9999   60.9366   40.3806 dc         1 CLA      0.063600
     74 HMB1       81.0264   62.1644   39.7370 dc         1 CLA      0.063600
     75 HMA3       81.4282   56.8230   37.7013 dc         1 CLA      0.058300
     76 HMA2       82.3869   57.4269   36.2849 dc         1 CLA      0.058300
     77 HMA1       82.2311   58.4869   37.6561 dc         1 CLA      0.058300
     78 HED3       78.5779   52.3968   37.9862 dc         1 CLA      0.079300
     79 HED2       78.2553   51.9732   36.3192 dc         1 CLA      0.079300
     80 HED1       79.6346   53.0899   36.8437 dc         1 CLA      0.079300
     81 HBC3       72.5563   55.5718   41.9774 dc         1 CLA      0.016300
     82 HBC2       73.3493   55.5630   43.5877 dc         1 CLA      0.016300
     83 HBC1       71.5812   55.6419   43.4908 dc         1 CLA      0.016300
     84 HBB2       80.9514   62.4055   44.6339 da         1 CLA      0.183000
     85 HBB1       81.6627   61.2165   43.3938 da         1 CLA      0.183000
     86 HBA2       80.2008   57.9980   32.6556 dc         1 CLA      0.029400
     87 HBA1       81.3442   58.0016   33.8790 dc         1 CLA      0.029400
     88 HAC2       72.4081   57.9199   44.1255 dc         1 CLA      0.029300
     89 HAC1       71.5761   57.8455   42.4939 dc         1 CLA      0.029300
     90 HAA2       78.5985   56.8695   34.0842 dc         1 CLA      0.028700
     91 HAA1       78.8388   58.5352   34.4662 dc         1 CLA      0.028700
     92 H203       84.4273   59.5146   45.6509 dc         1 CLA      0.065600
     93 H202       83.4321   59.2047   44.2383 dc         1 CLA      0.065600
     94 H201       82.7737   59.5445   45.8993 dc         1 CLA      0.065600
     95 H193       84.0026   57.8016   47.6805 dc         1 CLA      0.065600
     96 H192       82.2890   57.2581   47.1583 dc         1 CLA      0.065600
     97 H191       83.6895   56.0939   47.1531 dc         1 CLA      0.065600
     98 H172       85.3407   56.0934   45.3904 dc         1 CLA      0.027600
     99 H171       85.8812   57.7360   45.4470 dc         1 CLA      0.027600
    100 H162       84.8681   57.8408   43.0550 dc         1 CLA      0.002900
    101 H161       84.8329   56.0621   43.0776 dc         1 CLA      0.002900
    102 H152       87.4882   57.3574   44.0013 dc         1 CLA      0.029100
    103 H151       86.9051   57.8100   42.2665 dc         1 CLA      0.029100
    104 H143       87.9223   53.8699   43.7465 dc         1 CLA      0.063600
    105 H142       87.3272   55.0408   44.8291 dc         1 CLA      0.063600
    106 H141       86.2089   54.1772   43.7281 dc         1 CLA      0.063600
    107 H122       86.1768   55.0275   41.1654 dc         1 CLA      0.032500
    108 H121       87.6753   54.1802   40.9943 dc         1 CLA      0.032500
    109 H112       88.5511   56.5147   40.1630 dc         1 CLA      0.006600
    110 H111       86.8235   56.9077   40.1373 dc         1 CLA      0.006600
    111 H102       88.1514   54.8073   38.5531 dc         1 CLA      0.024100
    112 H101       87.4723   56.4418   38.1067 dc         1 CLA      0.024100
    113 HHD        72.5878   56.7540   40.3067 da         1 CLA      0.174300
    114 HHC        76.8001   60.6846   43.3317 da         1 CLA      0.136800
    115 HHB        80.9493   60.0337   38.5252 da         1 CLA      0.138300
    116 HBD        76.5821   55.9420   34.5429 dc         1 CLA      0.107700
    117 HAB        78.5927   61.9968   43.7453 da         1 CLA      0.155200
    118 H93        83.9158   55.8070   38.2245 dc         1 CLA      0.069500
    119 H92        85.0890   56.9473   38.8397 dc         1 CLA      0.069500
    120 H91        85.0216   56.6640   37.0886 dc         1 CLA      0.069500
    121 H8         85.4688   54.3587   39.1440 dc         1 CLA      0.029300
    122 H72        86.9526   53.5267   37.4068 dc         1 CLA      0.044400
    123 H71        86.3695   54.5484   36.2953 dc         1 CLA      0.044400
    124 H62        83.9373   53.4177   37.4361 dc         1 CLA      0.015600
    125 H61        85.2100   52.0494   37.2621 dc         1 CLA      0.015600
    126 H52        85.1920   52.7108   34.8163 dc         1 CLA      0.033200
    127 H51        84.3443   54.0892   35.2091 dc         1 CLA      0.033200
    128 H43        82.3039   50.5037   34.6548 dc         1 CLA      0.037000
    129 H42        83.7527   50.8982   33.7524 dc         1 CLA      0.037000
    130 H41        83.9383   50.5299   35.4665 dc         1 CLA      0.037000
    131 H3A        80.5337   58.8711   35.8633 dc         1 CLA      0.041100
    132 H2A        79.7859   56.0718   35.9879 dc         1 CLA      0.083100
    133 H2         81.5278   53.2458   36.0361 da         1 CLA      0.180900
    134 H18        83.0144   57.0733   44.8805 dc         1 CLA     -0.003900
    135 H13        88.5885   55.9022   42.5991 dc         1 CLA      0.019700
    136 H12        80.6191   53.5698   33.4481 dc         1 CLA      0.120400
    137 H11        82.3541   53.8969   33.0470 dc         1 CLA      0.120400
    138 C1         69.2386   61.4858   50.1980 Z1         2 LUT      0.509236
    139 C2         67.9572   61.4747   50.9519 Z2         2 LUT     -0.434695
    140 C3         67.1925   62.7809   51.0655 Z3         2 LUT      0.437453
    141 O3         67.3110   63.4291   52.3188 S1         2 LUT     -0.547129
    142 C4         67.3777   63.7952   49.9394 Z4         2 LUT     -0.468603
    143 C5         68.3108   63.3379   48.7743 Z5         2 LUT      0.279246
    144 C6         69.1083   62.2655   48.9085 Z6         2 LUT     -0.305473
    145 C7         69.7161   61.7466   47.6413 Z7         2 LUT      0.069402
    146 C8         70.4768   62.3838   46.7281 Z8         2 LUT     -0.191631
    147 C9         71.0042   62.1167   45.3825 Z9         2 LUT      0.196698
    148 C10        72.0727   62.7632   44.9280 Y1         2 LUT     -0.208611
    149 C11        72.8903   62.7303   43.6992 Y2         2 LUT      0.030784
    150 C12        74.0771   63.3036   43.5128 Y3         2 LUT     -0.220316
    151 C13        75.0221   63.2271   42.3978 Y4         2 LUT      0.215937
    152 C14        76.2293   63.9209   42.5501 Y5         2 LUT     -0.185793
    153 C15        77.2923   63.9541   41.5773 Y6         2 LUT     -0.057835
    154 C16        69.8371   60.0198   50.0719 Y7         2 LUT     -0.405615
    155 C17        70.1925   62.2393   51.1292 Y7         2 LUT     -0.405615
    156 C18        67.8545   64.1321   47.5418 Y9         2 LUT     -0.369639
    157 C19        70.5076   60.9195   44.6220 W1         2 LUT     -0.333362
    158 C20        74.7206   62.3508   41.1639 W2         2 LUT     -0.323439
    159 C21        88.4902   64.5815   35.7220 Z1         2 LUT      0.406104
    160 C22        89.2438   63.8058   34.5830 Z2         2 LUT     -0.404965
    161 C23        89.3573   64.6871   33.3236 Z3         2 LUT      0.391255
    162 O23        89.7144   63.6656   32.3366 S1         2 LUT     -0.528210
    163 C24        88.1210   65.3695   32.9136 W6         2 LUT     -0.258361
    164 C25        87.0660   65.5541   33.7220 Z5         2 LUT      0.133546
    165 C26        87.1295   65.1194   35.2286 W8         2 LUT     -0.147008
    166 C27        86.4323   66.1192   36.1294 Z7         2 LUT      0.023843
    167 C28        85.1121   65.9030   36.5345 Z8         2 LUT     -0.216987
    168 C29        84.5125   66.4350   37.7079 Z9         2 LUT      0.206524
    169 C30        83.4211   65.7796   38.3041 Y1         2 LUT     -0.215556
    170 C31        82.7620   66.0154   39.5698 Y2         2 LUT      0.025142
    171 C32        81.6214   65.3199   39.8851 Y3         2 LUT     -0.212209
    172 C33        80.7415   65.4238   41.0533 Y4         2 LUT      0.240937
    173 C34        79.5669   64.6737   40.9838 Y5         2 LUT     -0.218862
    174 C35        78.4496   64.5701   41.8379 Y6         2 LUT     -0.023547
    175 C36        89.4200   65.6666   36.3111 Y7         2 LUT     -0.393485
    176 C37        88.2674   63.5883   36.8385 Y7         2 LUT     -0.393485
    177 C38        85.9248   66.3406   33.2492 Y9         2 LUT     -0.387526
    178 C39        85.1336   67.7162   38.3334 W1         2 LUT     -0.322618
    179 C40        81.2195   66.3102   42.1964 W2         2 LUT     -0.358472
    180 H403       82.2265   65.9977   42.3944 R7         2 LUT      0.097720
    181 H402       81.2318   67.3360   41.9935 R7         2 LUT      0.097720
    182 H401       80.7515   65.9901   43.1026 R7         2 LUT      0.097720
    183 H393       84.5418   68.2990   38.9938 R4         2 LUT      0.082505
    184 H392       86.1244   67.5458   38.8454 R4         2 LUT      0.082505
    185 H391       85.4279   68.4556   37.6134 R4         2 LUT      0.082505
    186 H383       86.1100   66.8420   32.3269 R1         2 LUT      0.104030
    187 H382       85.0704   65.6188   33.0970 R1         2 LUT      0.104030
    188 H381       85.4844   67.0897   33.8569 R1         2 LUT      0.104030
    189 H373       89.2084   63.3558   37.3610 T4         2 LUT      0.089537
    190 H372       87.5889   64.0236   37.6656 T4         2 LUT      0.089537
    191 H371       87.8686   62.6266   36.4741 T4         2 LUT      0.089537
    192 H363       88.9319   66.1380   37.2012 T4         2 LUT      0.089537
    193 H362       90.3888   65.2782   36.6143 T4         2 LUT      0.089537
    194 H361       89.6110   66.4921   35.6150 T4         2 LUT      0.089537
    195 H222       90.2425   63.4058   34.8648 U2         2 LUT      0.127376
    196 H221       88.5742   62.9368   34.3778 U2         2 LUT      0.127376
    197 H203       74.4132   62.9010   40.3065 R7         2 LUT      0.087068
    198 H202       75.6774   61.8478   40.8839 R7         2 LUT      0.087068
    199 H201       74.0081   61.5085   41.3602 R7         2 LUT      0.087068
    200 H193       70.9062   60.0459   45.0979 R4         2 LUT      0.089716
    201 H192       69.4047   60.8133   44.7033 R4         2 LUT      0.089716
    202 H191       70.9147   60.7957   43.5663 R4         2 LUT      0.089716
    203 H183       68.0794   63.6011   46.5989 R1         2 LUT      0.094572
    204 H182       66.8368   64.4708   47.5876 R1         2 LUT      0.094572
    205 H181       68.3529   65.1444   47.5767 R1         2 LUT      0.094572
    206 H173       70.2843   61.7476   52.0826 T4         2 LUT      0.093752
    207 H172       71.2790   62.2953   50.8122 T4         2 LUT      0.093752
    208 H171       69.7887   63.3388   51.2665 T4         2 LUT      0.093752
    209 H163       70.8730   60.0571   49.9216 T4         2 LUT      0.093752
    210 H162       69.6484   59.5872   51.0570 T4         2 LUT      0.093752
    211 H161       69.2838   59.4436   49.2157 T4         2 LUT      0.093752
    212 HO3        67.1435   62.7797   52.9809 Q1         2 LUT      0.300121
    213 H8         70.7842   63.4491   46.9909 U7         2 LUT      0.080784
    214 H7         69.4202   60.7902   47.2610 U6         2 LUT      0.042190
    215 H42        66.3197   64.0597   49.6136 U5         2 LUT      0.145166
    216 H41        67.8186   64.7768   50.2227 U5         2 LUT      0.145166
    217 H35        78.5394   65.0481   42.7659 T3         2 LUT      0.077919
    218 H34        79.3041   64.2598   40.0376 T2         2 LUT      0.073626
    219 H32        81.2150   64.6662   39.1061 T1         2 LUT      0.092510
    220 H31        83.1888   66.7455   40.2187 U9         2 LUT      0.070048
    221 H30        83.0292   64.8995   37.8181 U8         2 LUT      0.085442
    222 H3         66.0807   62.6160   50.9560 U3         2 LUT     -0.031596
    223 H28        84.5022   65.1005   36.1391 U7         2 LUT      0.084728
    224 H27        87.0399   66.8013   36.6545 U6         2 LUT      0.087291
    225 H26        86.4044   64.3290   35.1605 Q6         2 LUT      0.075325
    226 H24        88.0819   65.8649   31.9316 Q5         2 LUT      0.094482
    227 H23        90.1672   65.3353   33.5154 U3         2 LUT     -0.024869
    228 H22        67.2121   60.8748   50.3292 U2         2 LUT      0.127376
    229 H21        68.0757   60.9504   51.8612 U2         2 LUT      0.127376
    230 H15        77.2114   63.4764   40.6267 T3         2 LUT      0.093200
    231 H14        76.5759   64.3914   43.4384 T2         2 LUT      0.068865
    232 H12        74.3557   63.8621   44.4378 T1         2 LUT      0.095507
    233 H11        72.3755   62.1642   42.8347 U9         2 LUT      0.068930
    234 H10        72.3297   63.5705   45.6577 U8         2 LUT      0.083911
    235 H1         90.0658   63.9498   31.5082 Q1         2 LUT      0.297311
@<TRIPOS>BOND
    1     6     1 1
    2     7     2 1
    3     8     3 1
    4     9     4 1
    5    11     4 1
    6    12     6 1
    7    13     9 1
    8    16     9 1
    9    25     5 1
   10    25    16 1
   11    26    10 1
   12    26    17 1
   13    27    18 1
   14    28    14 1
   15    28    19 1
   16    29    12 1
   17    30    13 1
   18    31    24 1
   19    32     1 1
   20    32    25 1
   21    33    21 1
   22    33    26 1
   23    34    22 1
   24    34    27 1
   25    35    23 1
   26    35    28 1
   27    36    12 1
   28    36    24 1
   29    37    13 1
   30    37    15 1
   31    38    31 1
   32    39    20 1
   33    39    32 1
   34    40     2 1
   35    40    33 1
   36    41     3 1
   37    41    34 1
   38    42     4 1
   39    42    35 1
   40    43    38 1
   41    44     5 1
   42    44    17 1
   43    44    39 1
   44    45    10 1
   45    45    18 1
   46    45    40 1
   47    46    19 1
   48    46    41 1
   49    47    14 1
   50    47    16 1
   51    47    42 1
   52    48    38 1
   53    49    48 1
   54    50    49 1
   55    51    50 1
   56    52    51 1
   57    53    51 1
   58    54    53 1
   59    55    54 1
   60    56    55 1
   61    57    56 1
   62    58    56 1
   63    59    58 1
   64    60    59 1
   65    61    60 1
   66    62    61 1
   67    63    61 1
   68    64    27 1
   69    64    46 1
   70    65     5 1
   71    65    10 1
   72    65    64 1
   73    65    14 1
   74    66    23 1
   75    67    23 1
   76    68    23 1
   77    69    22 1
   78    70    22 1
   79    71    22 1
   80    72    21 1
   81    73    21 1
   82    74    21 1
   83    75    20 1
   84    76    20 1
   85    77    20 1
   86    78    15 1
   87    79    15 1
   88    80    15 1
   89    81     8 1
   90    82     8 1
   91    83     8 1
   92    84     7 1
   93    85     7 1
   94    86     6 1
   95    87     6 1
   96    88     3 1
   97    89     3 1
   98    90     1 1
   99    91     1 1
  100    92    63 1
  101    93    63 1
  102    94    63 1
  103    95    62 1
  104    96    62 1
  105    97    62 1
  106    98    60 1
  107    99    60 1
  108   100    59 1
  109   101    59 1
  110   102    58 1
  111   103    58 1
  112   104    57 1
  113   105    57 1
  114   106    57 1
  115   107    55 1
  116   108    55 1
  117   109    54 1
  118   110    54 1
  119   111    53 1
  120   112    53 1
  121   113    19 1
  122   114    18 1
  123   115    17 1
  124   116     9 1
  125   117     2 1
  126   118    52 1
  127   119    52 1
  128   120    52 1
  129   121    51 1
  130   122    50 1
  131   123    50 1
  132   124    49 1
  133   125    49 1
  134   126    48 1
  135   127    48 1
  136   128    43 1
  137   129    43 1
  138   130    43 1
  139   131    39 1
  140   132    32 1
  141   133    31 1
  142   134    61 1
  143   135    56 1
  144   136    24 1
  145   137    24 1
  146   139   138 1
  147   140   139 1
  148   141   140 1
  149   142   140 1
  150   143   142 1
  151   144   138 1
  152   144   143 1
  153   145   144 1
  154   146   145 1
  155   147   146 1
  156   148   147 1
  157   149   148 1
  158   150   149 1
  159   151   150 1
  160   152   151 1
  161   153   152 1
  162   154   138 1
  163   155   138 1
  164   156   143 1
  165   157   147 1
  166   158   151 1
  167   160   159 1
  168   161   160 1
  169   162   161 1
  170   163   161 1
  171   164   163 1
  172   165   159 1
  173   165   164 1
  174   166   165 1
  175   167   166 1
  176   168   167 1
  177   169   168 1
  178   170   169 1
  179   171   170 1
  180   172   171 1
  181   173   172 1
  182   174   153 1
  183   174   173 1
  184   175   159 1
  185   176   159 1
  186   177   164 1
  187   178   168 1
  188   179   172 1
  189   180   179 1
  190   181   179 1
  191   182   179 1
  192   183   178 1
  193   184   178 1
  194   185   178 1
  195   186   177 1
  196   187   177 1
  197   188   177 1
  198   189   176 1
  199   190   176 1
  200   191   176 1
  201   192   175 1
  202   193   175 1
  203   194   175 1
  204   195   160 1
  205   196   160 1
  206   197   158 1
  207   198   158 1
  208   199   158 1
  209   200   157 1
  210   201   157 1
  211   202   157 1
  212   203   156 1
  213   204   156 1
  214   205   156 1
  215   206   155 1
  216   207   155 1
  217   208   155 1
  218   209   154 1
  219   210   154 1
  220   211   154 1
  221   212   141 1
  222   213   146 1
  223   214   145 1
  224   215   142 1
  225   216   142 1
  226   217   174 1
  227   218   173 1
  228   219   171 1
  229   220   170 1
  230   221   169 1
  231   222   140 1
  232   223   167 1
  233   224   166 1
  234   225   165 1
  235   226   163 1
  236   227   161 1
  237   228   139 1
  238   229   139 1
  239   230   153 1
  240   231   152 1
  241   232   150 1
  242   233   149 1
  243   234   148 1
  244   235   162 1
  245   65    153 1
  246   65    174 1
@<TRIPOS>SUBSTRUCTURE
      1 CLA               1 ****               0 ****  **** 
      2 LUT             138 ****               0 ****  **** 
