@<TRIPOS>MOLECULE
Cpptraj generated mol2 file.
  235   246     2     0     0
SMALL
USER_CHARGES


@<TRIPOS>ATOM
      1 CAA        79.2184   59.1040   34.0244 a2         1 CLA     -0.055900
      2 CAB        78.2530   61.0309   43.7242 c8         1 CLA     -0.148500
      3 CAC        71.6781   56.7932   41.6432 a2         1 CLA     -0.012600
      4 CAD        75.0574   56.5654   34.1845 ck         1 CLA      0.398800
      5 NA         77.8240   58.8355   37.3315 ns         1 CLA     -0.225500
      6 CBA        80.5243   59.1830   33.2020 a2         1 CLA     -0.135000
      7 CBB        79.4281   61.0868   44.3876 c0         1 CLA     -0.395200
      8 CBC        71.8633   55.2654   41.6832 a3         1 CLA     -0.037700
      9 CBD        76.5229   57.0693   34.2407 a1         1 CLA     -0.053900
     10 NB         77.4089   59.7929   40.2176 nm         1 CLA     -0.295700
     11 OBD        74.5502   56.0061   33.2392 o2         1 CLA     -0.494600
     12 CGA        80.9779   57.8028   32.7058 c4         1 CLA      0.827000
     13 CGD        77.4259   55.9397   33.8601 c4         1 CLA      0.655300
     14 ND         75.1557   57.6590   37.4509 nm         1 CLA     -0.291600
     15 CED        78.4332   53.8129   34.4761 a3         1 CLA      0.005400
     16 CHA        76.8071   57.6508   35.5926 cs         1 CLA     -0.123800
     17 CHB        79.3439   60.1649   38.7892 aa         1 CLA     -0.291900
     18 CHC        76.0297   59.5248   42.1218 aa         1 CLA     -0.090400
     19 CHD        73.2597   57.0771   38.8891 aa         1 CLA     -0.052000
     20 CMA        81.3190   58.6504   36.9097 a3         1 CLA     -0.230700
     21 CMB        80.3753   61.7417   41.2615 a3         1 CLA     -0.180800
     22 CMC        73.3972   58.2454   43.7339 a3         1 CLA     -0.134000
     23 CMD        72.2551   55.7592   35.9188 a3         1 CLA     -0.141100
     24 C1         82.1258   55.7470   33.3031 a2         1 CLA      0.023000
     25 C1A        77.8910   58.2694   36.1171 ac         1 CLA     -0.015100
     26 C1B        78.6373   60.3240   39.9858 cr         1 CLA      0.054700
     27 C1C        74.8990   58.8200   41.5594 cn         1 CLA     -0.005600
     28 C1D        73.9009   57.0647   37.6121 ap         1 CLA     -0.047300
     29 O1A        80.9786   57.3854   31.5322 o2         1 CLA     -0.610800
     30 O1D        78.2930   55.9881   32.9428 o2         1 CLA     -0.558200
     31 C2         82.9981   55.2509   34.4586 c8         1 CLA     -0.325100
     32 C2A        79.2198   58.4787   35.5063 a1         1 CLA      0.098600
     33 C2B        79.0550   61.0480   41.1589 cb         1 CLA      0.088500
     34 C2C        73.7481   58.2500   42.2531 cb         1 CLA      0.053700
     35 C2D        73.4067   56.5193   36.3248 cb         1 CLA      0.058900
     36 O2A        81.5589   57.0630   33.7253 o1         1 CLA     -0.437200
     37 O2D        77.4022   54.8064   34.6954 o1         1 CLA     -0.357600
     38 C3         84.0137   54.3644   34.4100 c5         1 CLA      0.031200
     39 C3A        80.0231   59.3784   36.4540 a1         1 CLA      0.166800
     40 C3B        78.1943   60.7153   42.2181 cb         1 CLA      0.035000
     41 C3C        72.9755   57.5623   41.2908 cb         1 CLA     -0.089900
     42 C3D        74.5410   56.7578   35.5058 cb         1 CLA     -0.035900
     43 C4         83.7949   52.8294   34.7488 a3         1 CLA     -0.053300
     44 C4A        78.9851   59.4922   37.6008 ac         1 CLA      0.001800
     45 C4B        77.1424   59.9820   41.5424 cn         1 CLA     -0.020900
     46 C4C        73.7218   57.6663   40.1113 cr         1 CLA     -0.044400
     47 C4D        75.5556   57.4193   36.2152 c6         1 CLA     -0.046000
     48 C5         85.3635   54.8347   34.0958 a2         1 CLA     -0.070400
     49 C6         85.6102   56.1735   34.8514 a2         1 CLA      0.043900
     50 C7         85.5023   56.0010   36.3567 a2         1 CLA     -0.150000
     51 C8         85.4975   57.2587   37.2406 a1         1 CLA      0.064200
     52 C9         86.7720   58.1463   36.9645 a3         1 CLA     -0.259300
     53 C10        85.2554   57.0093   38.7736 a2         1 CLA     -0.071900
     54 C11        84.9471   58.2940   39.6101 a2         1 CLA      0.014500
     55 C12        84.2010   58.0680   40.9192 a2         1 CLA     -0.112100
     56 C13        83.7867   59.2996   41.6678 a1         1 CLA      0.089200
     57 C14        84.9236   60.2435   42.0921 a3         1 CLA     -0.239100
     58 C15        82.8726   59.0331   42.8748 a2         1 CLA     -0.102200
     59 C16        83.5954   58.5424   44.1112 a2         1 CLA      0.023900
     60 C17        82.6879   58.1190   45.2762 a2         1 CLA     -0.105700
     61 C18        83.3411   57.1484   46.3423 a1         1 CLA      0.206800
     62 C19        84.6127   57.6573   47.0484 a3         1 CLA     -0.280100
     63 C20        82.2066   56.6827   47.3590 a3         1 CLA     -0.280100
     64 NC         74.8650   58.3504   40.2445 nx         1 CLA     -0.309200
     65 MG         76.2809   58.7626   38.8156 mg         1 CLA      0.895000
     66 HMD3       71.4460   56.4256   35.8541 dc         1 CLA      0.064300
     67 HMD2       72.4186   55.2033   35.0506 dc         1 CLA      0.064300
     68 HMD1       72.2367   55.0902   36.7435 dc         1 CLA      0.064300
     69 HMC3       74.3540   58.5518   44.2274 dc         1 CLA      0.052100
     70 HMC2       72.5464   58.9830   43.8427 dc         1 CLA      0.052100
     71 HMC1       73.0645   57.1986   44.0376 dc         1 CLA      0.052100
     72 HMB3       80.2806   62.5610   41.9716 dc         1 CLA      0.063600
     73 HMB2       81.2712   61.1233   41.5181 dc         1 CLA      0.063600
     74 HMB1       80.4809   62.2204   40.2822 dc         1 CLA      0.063600
     75 HMA3       81.7617   58.2544   36.0737 dc         1 CLA      0.058300
     76 HMA2       82.0125   59.3058   37.4988 dc         1 CLA      0.058300
     77 HMA1       80.8893   57.8385   37.4665 dc         1 CLA      0.058300
     78 HED3       79.3467   54.1524   35.0394 dc         1 CLA      0.079300
     79 HED2       78.1217   52.8845   34.9588 dc         1 CLA      0.079300
     80 HED1       78.6773   53.6034   33.4061 dc         1 CLA      0.079300
     81 HBC3       71.1983   54.7380   42.2988 dc         1 CLA      0.016300
     82 HBC2       71.6952   54.8628   40.6917 dc         1 CLA      0.016300
     83 HBC1       72.8953   55.0266   42.0450 dc         1 CLA      0.016300
     84 HBB2       79.3831   61.3130   45.4551 da         1 CLA      0.183000
     85 HBB1       80.4347   61.0232   43.9344 da         1 CLA      0.183000
     86 HBA2       80.2392   59.6657   32.3331 dc         1 CLA      0.029400
     87 HBA1       81.2705   59.7697   33.7714 dc         1 CLA      0.029400
     88 HAC2       71.3806   57.1269   42.5986 dc         1 CLA      0.029300
     89 HAC1       70.7373   57.0198   41.0888 dc         1 CLA      0.029300
     90 HAA2       78.6561   58.4013   33.4675 dc         1 CLA      0.028700
     91 HAA1       78.8656   60.1238   33.8814 dc         1 CLA      0.028700
     92 H203       82.6391   55.9242   48.0551 dc         1 CLA      0.065600
     93 H202       81.8149   57.5453   47.8735 dc         1 CLA      0.065600
     94 H201       81.3819   56.2501   46.7514 dc         1 CLA      0.065600
     95 H193       85.4214   57.8876   46.3194 dc         1 CLA      0.065600
     96 H192       84.2602   58.5667   47.5030 dc         1 CLA      0.065600
     97 H191       85.0871   56.9482   47.6995 dc         1 CLA      0.065600
     98 H172       82.3998   59.0988   45.7281 dc         1 CLA      0.027600
     99 H171       81.8261   57.6431   44.8275 dc         1 CLA      0.027600
    100 H162       84.2559   57.6786   43.8697 dc         1 CLA      0.002900
    101 H161       84.1734   59.2186   44.6085 dc         1 CLA      0.002900
    102 H152       82.3295   59.9435   43.0747 dc         1 CLA      0.029100
    103 H151       82.2137   58.2228   42.6682 dc         1 CLA      0.029100
    104 H143       85.5375   59.7698   42.8199 dc         1 CLA      0.063600
    105 H142       85.5341   60.4525   41.2630 dc         1 CLA      0.063600
    106 H141       84.5556   61.1609   42.3499 dc         1 CLA      0.063600
    107 H122       83.2783   57.5178   40.6685 dc         1 CLA      0.032500
    108 H121       84.7658   57.3250   41.4701 dc         1 CLA      0.032500
    109 H112       85.8074   58.9528   39.7047 dc         1 CLA      0.006600
    110 H111       84.2498   58.7417   38.9231 dc         1 CLA      0.006600
    111 H102       84.3159   56.3795   38.7713 dc         1 CLA      0.024100
    112 H101       86.1391   56.4625   39.2511 dc         1 CLA      0.024100
    113 HHD        72.2512   56.5913   38.9040 da         1 CLA      0.174300
    114 HHC        75.9664   59.5216   43.2387 da         1 CLA      0.136800
    115 HHB        80.3717   60.5323   38.7583 da         1 CLA      0.138300
    116 HBD        76.6646   57.8597   33.4833 dc         1 CLA      0.107700
    117 HAB        77.3951   60.9919   44.3587 da         1 CLA      0.155200
    118 H93        87.0736   58.4064   35.9900 dc         1 CLA      0.069500
    119 H92        86.8506   59.0339   37.5074 dc         1 CLA      0.069500
    120 H91        87.5981   57.5336   37.2926 dc         1 CLA      0.069500
    121 H8         84.7211   57.8528   36.7361 dc         1 CLA      0.029300
    122 H72        84.5838   55.4640   36.6753 dc         1 CLA      0.044400
    123 H71        86.3440   55.4212   36.6739 dc         1 CLA      0.044400
    124 H62        86.6146   56.5404   34.6185 dc         1 CLA      0.015600
    125 H61        84.9412   56.9424   34.5248 dc         1 CLA      0.015600
    126 H52        86.1346   54.0993   34.4935 dc         1 CLA      0.033200
    127 H51        85.4935   55.0299   33.0060 dc         1 CLA      0.033200
    128 H43        84.1056   52.7302   35.8032 dc         1 CLA      0.037000
    129 H42        82.7247   52.5827   34.8073 dc         1 CLA      0.037000
    130 H41        84.3448   52.2322   34.0668 dc         1 CLA      0.037000
    131 H3A        80.2136   60.4031   36.2501 dc         1 CLA      0.041100
    132 H2A        79.6756   57.4812   35.4036 dc         1 CLA      0.083100
    133 H2         82.8406   55.6698   35.4110 da         1 CLA      0.180900
    134 H18        83.6230   56.3093   45.7171 dc         1 CLA     -0.003900
    135 H13        83.2198   59.9543   40.9707 dc         1 CLA      0.019700
    136 H12        81.3220   55.0662   33.1908 dc         1 CLA      0.120400
    137 H11        82.7124   55.7454   32.3707 dc         1 CLA      0.120400
    138 C1         68.8824   61.3498   49.9864 Z1         2 LUT      0.509236
    139 C2         68.5328   62.1432   51.2893 Z2         2 LUT     -0.434695
    140 C3         67.1050   62.4475   51.3495 Z3         2 LUT      0.437453
    141 O3         66.9122   63.2521   52.4978 S1         2 LUT     -0.547129
    142 C4         66.5636   63.1470   50.0263 Z4         2 LUT     -0.468603
    143 C5         67.2283   62.6897   48.7748 Z5         2 LUT      0.279246
    144 C6         68.1375   61.7203   48.6851 Z6         2 LUT     -0.305473
    145 C7         68.7976   61.4600   47.4064 Z7         2 LUT      0.069402
    146 C8         69.6524   62.3161   46.7707 Z8         2 LUT     -0.191631
    147 C9         70.3711   61.9516   45.5267 Z9         2 LUT      0.196698
    148 C10        71.4532   62.6935   45.0324 Y1         2 LUT     -0.208611
    149 C11        72.2495   62.6728   43.7855 Y2         2 LUT      0.030784
    150 C12        73.5339   63.1954   43.6857 Y3         2 LUT     -0.220316
    151 C13        74.3807   63.2129   42.5525 Y4         2 LUT      0.215937
    152 C14        75.5186   63.9400   42.6145 Y5         2 LUT     -0.185793
    153 C15        76.6586   64.0316   41.7145 Y6         2 LUT     -0.057835
    154 C16        68.4441   59.8644   50.1255 Y7         2 LUT     -0.405615
    155 C17        70.4155   61.3578   49.8506 Y7         2 LUT     -0.405615
    156 C18        66.7753   63.4708   47.5580 Y9         2 LUT     -0.369639
    157 C19        69.8011   60.7426   44.6955 W1         2 LUT     -0.333362
    158 C20        73.8683   62.6673   41.2520 W2         2 LUT     -0.323439
    159 C21        87.7247   66.1267   34.9809 Z1         2 LUT      0.406104
    160 C22        88.4722   65.7771   33.6436 Z2         2 LUT     -0.404965
    161 C23        88.3475   66.8003   32.5203 Z3         2 LUT      0.391255
    162 O23        89.1026   66.2819   31.3999 S1         2 LUT     -0.528210
    163 C24        86.8984   67.2106   32.3212 W6         2 LUT     -0.258361
    164 C25        85.9143   67.1634   33.2659 Z5         2 LUT      0.133546
    165 C26        86.2416   66.5240   34.6002 W8         2 LUT     -0.147008
    166 C27        85.4259   67.0275   35.7316 Z7         2 LUT      0.023843
    167 C28        84.4521   66.4054   36.4468 Z8         2 LUT     -0.216987
    168 C29        83.9296   66.8266   37.8041 Z9         2 LUT      0.206524
    169 C30        82.8567   66.1518   38.3252 Y1         2 LUT     -0.215556
    170 C31        82.0216   66.2661   39.4575 Y2         2 LUT      0.025142
    171 C32        80.7541   65.8195   39.7408 Y3         2 LUT     -0.212209
    172 C33        79.8989   65.8017   40.9072 Y4         2 LUT      0.240937
    173 C34        78.7806   64.9796   40.8883 Y5         2 LUT     -0.218862
    174 C35        77.7811   64.8017   41.8982 Y6         2 LUT     -0.023547
    175 C36        88.4923   67.3712   35.5827 Y7         2 LUT     -0.393485
    176 C37        87.9087   64.9704   36.1105 Y7         2 LUT     -0.393485
    177 C38        84.5791   67.6807   32.9645 Y9         2 LUT     -0.387526
    178 C39        84.4484   68.0565   38.5057 W1         2 LUT     -0.322618
    179 C40        80.0496   67.0487   41.7996 W2         2 LUT     -0.358472
    180 H403       81.0333   67.0505   42.3146 R7         2 LUT      0.097720
    181 H402       80.1098   67.8744   41.1752 R7         2 LUT      0.097720
    182 H401       79.2142   67.1088   42.5083 R7         2 LUT      0.097720
    183 H393       84.6601   67.9599   39.5371 R4         2 LUT      0.082505
    184 H392       85.4500   68.2677   38.1720 R4         2 LUT      0.082505
    185 H391       83.8735   68.9555   38.3782 R4         2 LUT      0.082505
    186 H383       83.8367   66.8890   33.0138 R1         2 LUT      0.104030
    187 H382       84.3253   68.4734   33.6783 R1         2 LUT      0.104030
    188 H381       84.4894   68.0762   31.9621 R1         2 LUT      0.104030
    189 H373       87.4933   63.9643   35.8994 T4         2 LUT      0.089537
    190 H372       88.9898   64.7762   36.1082 T4         2 LUT      0.089537
    191 H371       87.6159   65.2876   37.2109 T4         2 LUT      0.089537
    192 H363       88.7319   67.0893   36.6184 T4         2 LUT      0.089537
    193 H362       89.5101   67.4430   35.1532 T4         2 LUT      0.089537
    194 H361       88.0449   68.3447   35.5414 T4         2 LUT      0.089537
    195 H222       89.5245   65.5333   33.8583 U2         2 LUT      0.127376
    196 H221       88.1698   64.7049   33.3865 U2         2 LUT      0.127376
    197 H203       74.6449   62.5533   40.4684 R7         2 LUT      0.087068
    198 H202       73.5610   61.6141   41.3437 R7         2 LUT      0.087068
    199 H201       73.0974   63.3389   40.8029 R7         2 LUT      0.087068
    200 H193       70.1882   59.7271   44.9387 R4         2 LUT      0.089716
    201 H192       68.7266   60.7686   44.5749 R4         2 LUT      0.089716
    202 H191       70.1171   60.8758   43.6482 R4         2 LUT      0.089716
    203 H183       66.7700   62.9142   46.5759 R1         2 LUT      0.094572
    204 H182       65.8174   63.8784   47.6613 R1         2 LUT      0.094572
    205 H181       67.5307   64.3141   47.5410 R1         2 LUT      0.094572
    206 H173       70.9657   61.0947   50.7636 T4         2 LUT      0.093752
    207 H172       70.7386   60.6016   49.0999 T4         2 LUT      0.093752
    208 H171       70.8130   62.3541   49.4750 T4         2 LUT      0.093752
    209 H163       68.7709   59.4357   51.0257 T4         2 LUT      0.093752
    210 H162       67.3510   59.7260   50.1530 T4         2 LUT      0.093752
    211 H161       68.8178   59.2384   49.3247 T4         2 LUT      0.093752
    212 HO3        66.6664   62.7052   53.2545 Q1         2 LUT      0.300121
    213 H8         69.8645   63.3029   47.1615 U7         2 LUT      0.080784
    214 H7         68.5716   60.4697   46.9966 U6         2 LUT      0.042190
    215 H42        65.5111   62.9116   49.9268 U5         2 LUT      0.145166
    216 H41        66.6287   64.2499   50.1189 U5         2 LUT      0.145166
    217 H35        77.8954   65.3896   42.8102 T3         2 LUT      0.077919
    218 H34        78.5778   64.3669   39.9932 T2         2 LUT      0.073626
    219 H32        80.3784   65.2134   38.9207 T1         2 LUT      0.092510
    220 H31        82.3955   66.9202   40.2704 U9         2 LUT      0.070048
    221 H30        82.6390   65.3646   37.6350 U8         2 LUT      0.085442
    222 H3         66.4699   61.5927   51.3883 U3         2 LUT     -0.031596
    223 H28        83.8823   65.6359   35.9624 U7         2 LUT      0.084728
    224 H27        85.9137   67.8975   36.0612 U6         2 LUT      0.087291
    225 H26        85.8731   65.5378   34.2445 Q6         2 LUT      0.075325
    226 H24        86.7947   67.6318   31.3063 Q5         2 LUT      0.094482
    227 H23        88.8373   67.7216   32.7619 U3         2 LUT     -0.024869
    228 H22        68.8872   61.4979   52.0526 U2         2 LUT      0.127376
    229 H21        69.2108   63.0526   51.2922 U2         2 LUT      0.127376
    230 H15        76.5302   63.4974   40.7841 T3         2 LUT      0.093200
    231 H14        75.6912   64.4392   43.5744 T2         2 LUT      0.068865
    232 H12        74.0016   63.6765   44.5777 T1         2 LUT      0.095507
    233 H11        71.7937   62.2560   42.8939 U9         2 LUT      0.068930
    234 H10        71.7786   63.4684   45.6646 U8         2 LUT      0.083911
    235 H1         88.5312   65.8991   30.6993 Q1         2 LUT      0.297311
@<TRIPOS>BOND
    1     6     1 1
    2     7     2 1
    3     8     3 1
    4     9     4 1
    5    11     4 1
    6    12     6 1
    7    13     9 1
    8    16     9 1
    9    25     5 1
   10    25    16 1
   11    26    10 1
   12    26    17 1
   13    27    18 1
   14    28    14 1
   15    28    19 1
   16    29    12 1
   17    30    13 1
   18    31    24 1
   19    32     1 1
   20    32    25 1
   21    33    21 1
   22    33    26 1
   23    34    22 1
   24    34    27 1
   25    35    23 1
   26    35    28 1
   27    36    12 1
   28    36    24 1
   29    37    13 1
   30    37    15 1
   31    38    31 1
   32    39    20 1
   33    39    32 1
   34    40     2 1
   35    40    33 1
   36    41     3 1
   37    41    34 1
   38    42     4 1
   39    42    35 1
   40    43    38 1
   41    44     5 1
   42    44    17 1
   43    44    39 1
   44    45    10 1
   45    45    18 1
   46    45    40 1
   47    46    19 1
   48    46    41 1
   49    47    14 1
   50    47    16 1
   51    47    42 1
   52    48    38 1
   53    49    48 1
   54    50    49 1
   55    51    50 1
   56    52    51 1
   57    53    51 1
   58    54    53 1
   59    55    54 1
   60    56    55 1
   61    57    56 1
   62    58    56 1
   63    59    58 1
   64    60    59 1
   65    61    60 1
   66    62    61 1
   67    63    61 1
   68    64    27 1
   69    64    46 1
   70    65     5 1
   71    65    10 1
   72    65    64 1
   73    65    14 1
   74    66    23 1
   75    67    23 1
   76    68    23 1
   77    69    22 1
   78    70    22 1
   79    71    22 1
   80    72    21 1
   81    73    21 1
   82    74    21 1
   83    75    20 1
   84    76    20 1
   85    77    20 1
   86    78    15 1
   87    79    15 1
   88    80    15 1
   89    81     8 1
   90    82     8 1
   91    83     8 1
   92    84     7 1
   93    85     7 1
   94    86     6 1
   95    87     6 1
   96    88     3 1
   97    89     3 1
   98    90     1 1
   99    91     1 1
  100    92    63 1
  101    93    63 1
  102    94    63 1
  103    95    62 1
  104    96    62 1
  105    97    62 1
  106    98    60 1
  107    99    60 1
  108   100    59 1
  109   101    59 1
  110   102    58 1
  111   103    58 1
  112   104    57 1
  113   105    57 1
  114   106    57 1
  115   107    55 1
  116   108    55 1
  117   109    54 1
  118   110    54 1
  119   111    53 1
  120   112    53 1
  121   113    19 1
  122   114    18 1
  123   115    17 1
  124   116     9 1
  125   117     2 1
  126   118    52 1
  127   119    52 1
  128   120    52 1
  129   121    51 1
  130   122    50 1
  131   123    50 1
  132   124    49 1
  133   125    49 1
  134   126    48 1
  135   127    48 1
  136   128    43 1
  137   129    43 1
  138   130    43 1
  139   131    39 1
  140   132    32 1
  141   133    31 1
  142   134    61 1
  143   135    56 1
  144   136    24 1
  145   137    24 1
  146   139   138 1
  147   140   139 1
  148   141   140 1
  149   142   140 1
  150   143   142 1
  151   144   138 1
  152   144   143 1
  153   145   144 1
  154   146   145 1
  155   147   146 1
  156   148   147 1
  157   149   148 1
  158   150   149 1
  159   151   150 1
  160   152   151 1
  161   153   152 1
  162   154   138 1
  163   155   138 1
  164   156   143 1
  165   157   147 1
  166   158   151 1
  167   160   159 1
  168   161   160 1
  169   162   161 1
  170   163   161 1
  171   164   163 1
  172   165   159 1
  173   165   164 1
  174   166   165 1
  175   167   166 1
  176   168   167 1
  177   169   168 1
  178   170   169 1
  179   171   170 1
  180   172   171 1
  181   173   172 1
  182   174   153 1
  183   174   173 1
  184   175   159 1
  185   176   159 1
  186   177   164 1
  187   178   168 1
  188   179   172 1
  189   180   179 1
  190   181   179 1
  191   182   179 1
  192   183   178 1
  193   184   178 1
  194   185   178 1
  195   186   177 1
  196   187   177 1
  197   188   177 1
  198   189   176 1
  199   190   176 1
  200   191   176 1
  201   192   175 1
  202   193   175 1
  203   194   175 1
  204   195   160 1
  205   196   160 1
  206   197   158 1
  207   198   158 1
  208   199   158 1
  209   200   157 1
  210   201   157 1
  211   202   157 1
  212   203   156 1
  213   204   156 1
  214   205   156 1
  215   206   155 1
  216   207   155 1
  217   208   155 1
  218   209   154 1
  219   210   154 1
  220   211   154 1
  221   212   141 1
  222   213   146 1
  223   214   145 1
  224   215   142 1
  225   216   142 1
  226   217   174 1
  227   218   173 1
  228   219   171 1
  229   220   170 1
  230   221   169 1
  231   222   140 1
  232   223   167 1
  233   224   166 1
  234   225   165 1
  235   226   163 1
  236   227   161 1
  237   228   139 1
  238   229   139 1
  239   230   153 1
  240   231   152 1
  241   232   150 1
  242   233   149 1
  243   234   148 1
  244   235   162 1
  245   65    153 1
  246   65    174 1
@<TRIPOS>SUBSTRUCTURE
      1 CLA               1 ****               0 ****  **** 
      2 LUT             138 ****               0 ****  **** 
