@<TRIPOS>MOLECULE
Cpptraj generated mol2 file.
  235   246     2     0     0
SMALL
USER_CHARGES


@<TRIPOS>ATOM
      1 CAA        77.2155   57.9081   33.6453 a2         1 CLA     -0.055900
      2 CAB        76.6429   61.3499   42.7338 c8         1 CLA     -0.148500
      3 CAC        70.2008   56.7459   41.9087 a2         1 CLA     -0.012600
      4 CAD        73.0623   55.3410   34.3571 ck         1 CLA      0.398800
      5 NA         76.2496   57.9288   37.0983 ns         1 CLA     -0.225500
      6 CBA        78.4392   57.7048   32.7889 a2         1 CLA     -0.135000
      7 CBB        77.6733   61.4939   43.5978 c0         1 CLA     -0.395200
      8 CBC        70.4750   55.1604   41.8308 a3         1 CLA     -0.037700
      9 CBD        74.5727   55.8842   34.2046 a1         1 CLA     -0.053900
     10 NB         75.9104   59.2827   39.7311 nm         1 CLA     -0.295700
     11 OBD        72.4904   54.6258   33.5163 o2         1 CLA     -0.494600
     12 CGA        79.0597   56.3652   32.4683 c4         1 CLA      0.827000
     13 CGD        75.5002   54.8331   33.8730 c4         1 CLA      0.655300
     14 ND         73.3302   57.0795   37.4253 nm         1 CLA     -0.291600
     15 CED        76.1667   52.5977   34.4582 a3         1 CLA      0.005400
     16 CHA        74.9069   56.6280   35.5292 cs         1 CLA     -0.123800
     17 CHB        77.9546   59.2429   38.2389 aa         1 CLA     -0.291900
     18 CHC        74.3894   59.5801   41.6357 aa         1 CLA     -0.090400
     19 CHD        71.4092   56.8070   38.9792 aa         1 CLA     -0.052000
     20 CMA        79.6076   57.0577   36.5974 a3         1 CLA     -0.230700
     21 CMB        79.1325   60.9761   40.4644 a3         1 CLA     -0.180800
     22 CMC        72.1982   58.8306   43.6297 a3         1 CLA     -0.134000
     23 CMD        70.3660   55.0556   36.6353 a3         1 CLA     -0.141100
     24 C1         80.0327   54.3848   33.3393 a2         1 CLA      0.023000
     25 C1A        76.1348   57.2532   35.9089 ac         1 CLA     -0.015100
     26 C1B        77.2225   59.6147   39.3966 cr         1 CLA      0.054700
     27 C1C        73.2521   58.8368   41.2583 cn         1 CLA     -0.005600
     28 C1D        72.0525   56.5627   37.7908 ap         1 CLA     -0.047300
     29 O1A        79.1078   55.8883   31.3848 o2         1 CLA     -0.610800
     30 O1D        76.2333   54.7428   32.8592 o2         1 CLA     -0.558200
     31 C2         80.3544   53.8087   34.6742 c8         1 CLA     -0.325100
     32 C2A        77.4212   57.2640   35.1085 a1         1 CLA      0.098600
     33 C2B        77.7223   60.4598   40.4315 cb         1 CLA      0.088500
     34 C2C        72.2046   58.4288   42.1894 cb         1 CLA      0.053700
     35 C2D        71.5997   55.7643   36.6234 cb         1 CLA      0.058900
     36 O2A        79.6417   55.7346   33.5692 o1         1 CLA     -0.437200
     37 O2D        75.3591   53.7857   34.7550 o1         1 CLA     -0.357600
     38 C3         80.7513   52.5129   34.9840 c5         1 CLA      0.031200
     39 C3A        78.4230   57.9537   36.0457 a1         1 CLA      0.166800
     40 C3B        76.7074   60.6234   41.4291 cb         1 CLA      0.035000
     41 C3C        71.4021   57.5442   41.4465 cb         1 CLA     -0.089900
     42 C3D        72.6525   55.8188   35.6982 cb         1 CLA     -0.035900
     43 C4         79.8832   51.4097   35.4196 a3         1 CLA     -0.053300
     44 C4A        77.5048   58.4525   37.1823 ac         1 CLA      0.001800
     45 C4B        75.6025   59.8433   40.9671 cn         1 CLA     -0.020900
     46 C4C        71.9779   57.5095   40.0971 cr         1 CLA     -0.044400
     47 C4D        73.7077   56.6003   36.2912 c6         1 CLA     -0.046000
     48 C5         82.2889   52.2830   35.0255 a2         1 CLA     -0.070400
     49 C6         83.2728   53.5040   35.0448 a2         1 CLA      0.043900
     50 C7         83.1387   54.1853   36.4521 a2         1 CLA     -0.150000
     51 C8         84.1928   55.3289   36.7085 a1         1 CLA      0.064200
     52 C9         85.5868   54.8862   36.3822 a3         1 CLA     -0.259300
     53 C10        84.0869   55.7494   38.1805 a2         1 CLA     -0.071900
     54 C11        82.7698   56.1007   38.7612 a2         1 CLA      0.014500
     55 C12        82.8288   56.3692   40.3074 a2         1 CLA     -0.112100
     56 C13        81.5378   56.5849   41.1598 a1         1 CLA      0.089200
     57 C14        80.5848   57.6128   40.4761 a3         1 CLA     -0.239100
     58 C15        81.7969   56.9526   42.6661 a2         1 CLA     -0.102200
     59 C16        82.1964   58.4712   42.9986 a2         1 CLA      0.023900
     60 C17        82.2644   58.6648   44.5463 a2         1 CLA     -0.105700
     61 C18        82.7802   60.1123   45.0261 a1         1 CLA      0.206800
     62 C19        84.2974   60.3116   44.6409 a3         1 CLA     -0.280100
     63 C20        81.7939   61.1767   44.5113 a3         1 CLA     -0.280100
     64 NC         73.1643   58.2666   40.0900 nx         1 CLA     -0.309200
     65 MG         74.6617   58.3048   38.5459 mg         1 CLA      0.895000
     66 HMD3       70.4102   54.3192   37.4949 dc         1 CLA      0.064300
     67 HMD2       69.6163   55.8556   36.5635 dc         1 CLA      0.064300
     68 HMD1       70.4041   54.5782   35.6597 dc         1 CLA      0.064300
     69 HMC3       73.2321   58.6553   43.9750 dc         1 CLA      0.052100
     70 HMC2       71.9638   59.8169   43.9111 dc         1 CLA      0.052100
     71 HMC1       71.5050   58.1533   44.1434 dc         1 CLA      0.052100
     72 HMB3       79.5177   61.0706   39.4416 dc         1 CLA      0.063600
     73 HMB2       79.1733   62.0400   40.7691 dc         1 CLA      0.063600
     74 HMB1       79.8953   60.4174   40.9903 dc         1 CLA      0.063600
     75 HMA3       79.1906   56.0561   36.8281 dc         1 CLA      0.058300
     76 HMA2       80.3764   56.9351   35.8492 dc         1 CLA      0.058300
     77 HMA1       80.0358   57.4181   37.4984 dc         1 CLA      0.058300
     78 HED3       77.1503   52.8779   34.0976 dc         1 CLA      0.079300
     79 HED2       76.2553   51.8998   35.3105 dc         1 CLA      0.079300
     80 HED1       75.6748   52.1076   33.6132 dc         1 CLA      0.079300
     81 HBC3       71.5205   54.8836   42.0117 dc         1 CLA      0.016300
     82 HBC2       69.7915   54.7080   42.5536 dc         1 CLA      0.016300
     83 HBC1       70.2537   54.8996   40.8224 dc         1 CLA      0.016300
     84 HBB2       77.6000   61.9298   44.6101 da         1 CLA      0.183000
     85 HBB1       78.6857   61.0146   43.4718 da         1 CLA      0.183000
     86 HBA2       78.2066   58.1543   31.8403 dc         1 CLA      0.029400
     87 HBA1       79.2501   58.3156   33.1667 dc         1 CLA      0.029400
     88 HAC2       70.0252   56.9566   42.9611 dc         1 CLA      0.029300
     89 HAC1       69.2190   57.1129   41.4668 dc         1 CLA      0.029300
     90 HAA2       76.5019   57.2871   33.0996 dc         1 CLA      0.028700
     91 HAA1       76.9794   58.9141   33.7690 dc         1 CLA      0.028700
     92 H203       82.1996   62.1649   44.6057 dc         1 CLA      0.065600
     93 H202       81.7798   61.0658   43.4569 dc         1 CLA      0.065600
     94 H201       80.8354   61.1481   44.9980 dc         1 CLA      0.065600
     95 H193       84.3986   60.2775   43.5586 dc         1 CLA      0.065600
     96 H192       84.6045   61.2815   44.9701 dc         1 CLA      0.065600
     97 H191       84.9046   59.5188   45.0913 dc         1 CLA      0.065600
     98 H172       81.2534   58.4079   44.8906 dc         1 CLA      0.027600
     99 H171       82.9195   57.9139   45.0022 dc         1 CLA      0.027600
    100 H162       83.1691   58.5908   42.6245 dc         1 CLA      0.002900
    101 H161       81.4492   59.1551   42.5094 dc         1 CLA      0.002900
    102 H152       80.8931   56.5981   43.1851 dc         1 CLA      0.029100
    103 H151       82.6137   56.3525   43.1082 dc         1 CLA      0.029100
    104 H143       79.6855   57.9117   41.1404 dc         1 CLA      0.063600
    105 H142       81.1984   58.5314   40.2630 dc         1 CLA      0.063600
    106 H141       80.2470   57.1658   39.5591 dc         1 CLA      0.063600
    107 H122       83.3960   55.4900   40.7983 dc         1 CLA      0.032500
    108 H121       83.4545   57.2315   40.3480 dc         1 CLA      0.032500
    109 H112       82.3255   57.0034   38.2722 dc         1 CLA      0.006600
    110 H111       82.0456   55.2911   38.6611 dc         1 CLA      0.006600
    111 H102       84.4711   54.9100   38.8124 dc         1 CLA      0.024100
    112 H101       84.6889   56.6484   38.3994 dc         1 CLA      0.024100
    113 HHD        70.4957   56.2949   39.0946 da         1 CLA      0.174300
    114 HHC        74.1889   60.0787   42.5601 da         1 CLA      0.136800
    115 HHB        78.9984   59.4578   38.2805 da         1 CLA      0.138300
    116 HBD        74.5385   56.5928   33.4009 dc         1 CLA      0.107700
    117 HAB        75.6986   61.7486   43.0942 da         1 CLA      0.155200
    118 H93        86.2399   55.5739   36.8879 dc         1 CLA      0.069500
    119 H92        85.7728   53.9107   36.8202 dc         1 CLA      0.069500
    120 H91        85.7041   54.9218   35.2632 dc         1 CLA      0.069500
    121 H8         83.9107   56.2129   36.0573 dc         1 CLA      0.029300
    122 H72        82.0975   54.3975   36.6840 dc         1 CLA      0.044400
    123 H71        83.2460   53.4238   37.2239 dc         1 CLA      0.044400
    124 H62        84.2447   53.0317   35.0326 dc         1 CLA      0.015600
    125 H61        83.1257   54.2215   34.2949 dc         1 CLA      0.015600
    126 H52        82.4193   51.7779   35.9582 dc         1 CLA      0.033200
    127 H51        82.5073   51.6294   34.1963 dc         1 CLA      0.033200
    128 H43        79.7577   50.5716   34.7798 dc         1 CLA      0.037000
    129 H42        80.4019   51.0373   36.3183 dc         1 CLA      0.037000
    130 H41        78.8401   51.7895   35.5962 dc         1 CLA      0.037000
    131 H3A        78.8219   58.7541   35.4177 dc         1 CLA      0.041100
    132 H2A        77.7309   56.2708   35.0019 dc         1 CLA      0.083100
    133 H2         80.1573   54.5068   35.5110 da         1 CLA      0.180900
    134 H18        82.8302   60.1146   46.1499 dc         1 CLA     -0.003900
    135 H13        81.0524   55.6600   41.2401 dc         1 CLA      0.019700
    136 H12        79.2633   53.7280   32.9067 dc         1 CLA      0.120400
    137 H11        80.9743   54.4241   32.7658 dc         1 CLA      0.120400
    138 C1         67.4544   60.3816   49.7192 Z1         2 LUT      0.509236
    139 C2         67.5267   61.6419   50.6484 Z2         2 LUT     -0.434695
    140 C3         66.3040   62.4897   50.6800 Z3         2 LUT      0.437453
    141 O3         66.7832   63.8377   50.7310 S1         2 LUT     -0.547129
    142 C4         65.5965   62.4069   49.4074 Z4         2 LUT     -0.468603
    143 C5         66.2943   61.9098   48.1918 Z5         2 LUT      0.279246
    144 C6         67.1188   60.8226   48.3415 Z6         2 LUT     -0.305473
    145 C7         68.0353   60.3608   47.2828 Z7         2 LUT      0.069402
    146 C8         68.7483   61.1790   46.4614 Z8         2 LUT     -0.191631
    147 C9         69.3291   60.8645   45.1086 Z9         2 LUT      0.196698
    148 C10        70.1302   61.8091   44.5120 Y1         2 LUT     -0.208611
    149 C11        70.6970   61.8232   43.1657 Y2         2 LUT      0.030784
    150 C12        71.9028   62.5084   42.8886 Y3         2 LUT     -0.220316
    151 C13        72.6483   62.5225   41.6295 Y4         2 LUT      0.215937
    152 C14        73.8363   63.2120   41.5498 Y5         2 LUT     -0.185793
    153 C15        74.7714   63.2236   40.5115 Y6         2 LUT     -0.057835
    154 C16        66.3337   59.4525   50.3498 Y7         2 LUT     -0.405615
    155 C17        68.8491   59.6643   49.9824 Y7         2 LUT     -0.405615
    156 C18        66.1219   62.8022   47.0023 Y9         2 LUT     -0.369639
    157 C19        68.8068   59.6245   44.4503 W1         2 LUT     -0.333362
    158 C20        71.8854   61.8811   40.4745 W2         2 LUT     -0.323439
    159 C21        85.9859   64.1862   33.5901 Z1         2 LUT      0.406104
    160 C22        86.6722   63.9156   32.2513 Z2         2 LUT     -0.404965
    161 C23        86.7212   65.0902   31.2590 Z3         2 LUT      0.391255
    162 O23        87.4140   64.7593   30.0856 S1         2 LUT     -0.528210
    163 C24        85.4710   65.8216   31.1954 W6         2 LUT     -0.258361
    164 C25        84.4291   65.7143   32.0486 Z5         2 LUT      0.133546
    165 C26        84.5008   64.7156   33.1817 W8         2 LUT     -0.147008
    166 C27        83.8489   65.2830   34.4110 Z7         2 LUT      0.023843
    167 C28        82.7402   64.8051   35.0217 Z8         2 LUT     -0.216987
    168 C29        82.0680   65.4218   36.2377 Z9         2 LUT      0.206524
    169 C30        80.8639   64.8740   36.7027 Y1         2 LUT     -0.215556
    170 C31        80.2010   65.0288   37.9547 Y2         2 LUT      0.025142
    171 C32        78.9757   64.5005   38.2571 Y3         2 LUT     -0.212209
    172 C33        78.2219   64.6071   39.4739 Y4         2 LUT      0.240937
    173 C34        76.9990   63.9383   39.5532 Y5         2 LUT     -0.218862
    174 C35        75.9005   63.9373   40.5602 Y6         2 LUT     -0.023547
    175 C36        86.7462   65.2639   34.3642 Y7         2 LUT     -0.393485
    176 C37        86.0413   62.9382   34.5218 Y7         2 LUT     -0.393485
    177 C38        83.1736   66.5394   31.8327 Y9         2 LUT     -0.387526
    178 C39        82.8242   66.3279   37.1349 W1         2 LUT     -0.322618
    179 C40        78.8325   65.2781   40.6596 W2         2 LUT     -0.358472
    180 H403       79.9027   64.9265   40.7880 R7         2 LUT      0.097720
    181 H402       78.7468   66.3924   40.5543 R7         2 LUT      0.097720
    182 H401       78.3459   64.9912   41.6030 R7         2 LUT      0.097720
    183 H393       82.2283   66.7736   37.9480 R4         2 LUT      0.082505
    184 H392       83.5643   65.7069   37.6712 R4         2 LUT      0.082505
    185 H391       83.4296   67.1292   36.6634 R4         2 LUT      0.082505
    186 H383       83.2308   67.4517   32.4641 R1         2 LUT      0.104030
    187 H382       83.3146   66.9336   30.8366 R1         2 LUT      0.104030
    188 H381       82.2025   66.0289   32.0438 R1         2 LUT      0.104030
    189 H373       85.7620   63.1929   35.4886 T4         2 LUT      0.089537
    190 H372       85.5230   62.1471   34.0949 T4         2 LUT      0.089537
    191 H371       87.1133   62.6413   34.5610 T4         2 LUT      0.089537
    192 H363       87.7854   64.9722   34.4905 T4         2 LUT      0.089537
    193 H362       86.7184   66.2842   33.9302 T4         2 LUT      0.089537
    194 H361       86.4034   65.3776   35.4169 T4         2 LUT      0.089537
    195 H222       87.7403   63.6906   32.4050 U2         2 LUT      0.127376
    196 H221       86.1491   63.1107   31.7581 U2         2 LUT      0.127376
    197 H203       71.6267   60.8284   40.5910 R7         2 LUT      0.087068
    198 H202       70.8532   62.3537   40.3584 R7         2 LUT      0.087068
    199 H201       72.3800   61.8705   39.5380 R7         2 LUT      0.087068
    200 H193       69.1732   58.7080   44.8837 R4         2 LUT      0.089716
    201 H192       67.7304   59.5477   44.4965 R4         2 LUT      0.089716
    202 H191       69.0743   59.5618   43.4365 R4         2 LUT      0.089716
    203 H183       66.7402   63.6585   47.2207 R1         2 LUT      0.094572
    204 H182       66.3646   62.3118   46.0417 R1         2 LUT      0.094572
    205 H181       65.1340   63.2494   46.9026 R1         2 LUT      0.094572
    206 H173       69.7031   60.3977   49.7827 T4         2 LUT      0.093752
    207 H172       69.0140   59.3524   50.9960 T4         2 LUT      0.093752
    208 H171       69.0054   58.8714   49.3492 T4         2 LUT      0.093752
    209 H163       66.5238   59.2254   51.4250 T4         2 LUT      0.093752
    210 H162       65.3361   59.8459   50.2124 T4         2 LUT      0.093752
    211 H161       66.3958   58.4295   49.8513 T4         2 LUT      0.093752
    212 HO3        66.3993   64.2854   51.5228 Q1         2 LUT      0.300121
    213 H8         68.6710   62.2395   46.7967 U7         2 LUT      0.080784
    214 H7         68.0571   59.2929   47.1210 U6         2 LUT      0.042190
    215 H42        64.7158   61.8182   49.5780 U5         2 LUT      0.145166
    216 H41        65.0269   63.3016   49.1416 U5         2 LUT      0.145166
    217 H35        76.1890   64.4665   41.4999 T3         2 LUT      0.077919
    218 H34        76.6801   63.4893   38.6267 T2         2 LUT      0.073626
    219 H32        78.4356   64.0105   37.4273 T1         2 LUT      0.092510
    220 H31        80.5512   65.4888   38.8461 U9         2 LUT      0.070048
    221 H30        80.3211   64.1169   36.1131 U8         2 LUT      0.085442
    222 H3         65.6006   62.1805   51.5059 U3         2 LUT     -0.031596
    223 H28        82.2743   63.8146   34.6885 U7         2 LUT      0.084728
    224 H27        84.2444   66.2306   34.8067 U6         2 LUT      0.087291
    225 H26        83.9374   63.8737   32.7893 Q6         2 LUT      0.075325
    226 H24        85.4360   66.5659   30.3943 Q5         2 LUT      0.094482
    227 H23        87.4567   65.7606   31.6811 U3         2 LUT     -0.024869
    228 H22        67.7402   61.3275   51.6731 U2         2 LUT      0.127376
    229 H21        68.3835   62.1878   50.3000 U2         2 LUT      0.127376
    230 H15        74.4879   62.7498   39.5292 T3         2 LUT      0.093200
    231 H14        74.2297   63.5593   42.5081 T2         2 LUT      0.068865
    232 H12        72.3869   62.8908   43.7573 T1         2 LUT      0.095507
    233 H11        70.2607   61.1179   42.4512 U9         2 LUT      0.068930
    234 H10        70.5456   62.5764   45.1865 U8         2 LUT      0.083911
    235 H1         86.7833   64.4243   29.4687 Q1         2 LUT      0.297311
@<TRIPOS>BOND
    1     6     1 1
    2     7     2 1
    3     8     3 1
    4     9     4 1
    5    11     4 1
    6    12     6 1
    7    13     9 1
    8    16     9 1
    9    25     5 1
   10    25    16 1
   11    26    10 1
   12    26    17 1
   13    27    18 1
   14    28    14 1
   15    28    19 1
   16    29    12 1
   17    30    13 1
   18    31    24 1
   19    32     1 1
   20    32    25 1
   21    33    21 1
   22    33    26 1
   23    34    22 1
   24    34    27 1
   25    35    23 1
   26    35    28 1
   27    36    12 1
   28    36    24 1
   29    37    13 1
   30    37    15 1
   31    38    31 1
   32    39    20 1
   33    39    32 1
   34    40     2 1
   35    40    33 1
   36    41     3 1
   37    41    34 1
   38    42     4 1
   39    42    35 1
   40    43    38 1
   41    44     5 1
   42    44    17 1
   43    44    39 1
   44    45    10 1
   45    45    18 1
   46    45    40 1
   47    46    19 1
   48    46    41 1
   49    47    14 1
   50    47    16 1
   51    47    42 1
   52    48    38 1
   53    49    48 1
   54    50    49 1
   55    51    50 1
   56    52    51 1
   57    53    51 1
   58    54    53 1
   59    55    54 1
   60    56    55 1
   61    57    56 1
   62    58    56 1
   63    59    58 1
   64    60    59 1
   65    61    60 1
   66    62    61 1
   67    63    61 1
   68    64    27 1
   69    64    46 1
   70    65     5 1
   71    65    10 1
   72    65    64 1
   73    65    14 1
   74    66    23 1
   75    67    23 1
   76    68    23 1
   77    69    22 1
   78    70    22 1
   79    71    22 1
   80    72    21 1
   81    73    21 1
   82    74    21 1
   83    75    20 1
   84    76    20 1
   85    77    20 1
   86    78    15 1
   87    79    15 1
   88    80    15 1
   89    81     8 1
   90    82     8 1
   91    83     8 1
   92    84     7 1
   93    85     7 1
   94    86     6 1
   95    87     6 1
   96    88     3 1
   97    89     3 1
   98    90     1 1
   99    91     1 1
  100    92    63 1
  101    93    63 1
  102    94    63 1
  103    95    62 1
  104    96    62 1
  105    97    62 1
  106    98    60 1
  107    99    60 1
  108   100    59 1
  109   101    59 1
  110   102    58 1
  111   103    58 1
  112   104    57 1
  113   105    57 1
  114   106    57 1
  115   107    55 1
  116   108    55 1
  117   109    54 1
  118   110    54 1
  119   111    53 1
  120   112    53 1
  121   113    19 1
  122   114    18 1
  123   115    17 1
  124   116     9 1
  125   117     2 1
  126   118    52 1
  127   119    52 1
  128   120    52 1
  129   121    51 1
  130   122    50 1
  131   123    50 1
  132   124    49 1
  133   125    49 1
  134   126    48 1
  135   127    48 1
  136   128    43 1
  137   129    43 1
  138   130    43 1
  139   131    39 1
  140   132    32 1
  141   133    31 1
  142   134    61 1
  143   135    56 1
  144   136    24 1
  145   137    24 1
  146   139   138 1
  147   140   139 1
  148   141   140 1
  149   142   140 1
  150   143   142 1
  151   144   138 1
  152   144   143 1
  153   145   144 1
  154   146   145 1
  155   147   146 1
  156   148   147 1
  157   149   148 1
  158   150   149 1
  159   151   150 1
  160   152   151 1
  161   153   152 1
  162   154   138 1
  163   155   138 1
  164   156   143 1
  165   157   147 1
  166   158   151 1
  167   160   159 1
  168   161   160 1
  169   162   161 1
  170   163   161 1
  171   164   163 1
  172   165   159 1
  173   165   164 1
  174   166   165 1
  175   167   166 1
  176   168   167 1
  177   169   168 1
  178   170   169 1
  179   171   170 1
  180   172   171 1
  181   173   172 1
  182   174   153 1
  183   174   173 1
  184   175   159 1
  185   176   159 1
  186   177   164 1
  187   178   168 1
  188   179   172 1
  189   180   179 1
  190   181   179 1
  191   182   179 1
  192   183   178 1
  193   184   178 1
  194   185   178 1
  195   186   177 1
  196   187   177 1
  197   188   177 1
  198   189   176 1
  199   190   176 1
  200   191   176 1
  201   192   175 1
  202   193   175 1
  203   194   175 1
  204   195   160 1
  205   196   160 1
  206   197   158 1
  207   198   158 1
  208   199   158 1
  209   200   157 1
  210   201   157 1
  211   202   157 1
  212   203   156 1
  213   204   156 1
  214   205   156 1
  215   206   155 1
  216   207   155 1
  217   208   155 1
  218   209   154 1
  219   210   154 1
  220   211   154 1
  221   212   141 1
  222   213   146 1
  223   214   145 1
  224   215   142 1
  225   216   142 1
  226   217   174 1
  227   218   173 1
  228   219   171 1
  229   220   170 1
  230   221   169 1
  231   222   140 1
  232   223   167 1
  233   224   166 1
  234   225   165 1
  235   226   163 1
  236   227   161 1
  237   228   139 1
  238   229   139 1
  239   230   153 1
  240   231   152 1
  241   232   150 1
  242   233   149 1
  243   234   148 1
  244   235   162 1
  245   65    153 1
  246   65    174 1
@<TRIPOS>SUBSTRUCTURE
      1 CLA               1 ****               0 ****  **** 
      2 LUT             138 ****               0 ****  **** 
