@<TRIPOS>MOLECULE
Cpptraj generated mol2 file.
  235   246     2     0     0
SMALL
USER_CHARGES


@<TRIPOS>ATOM
      1 CAA        78.0088   56.4079   33.6000 a2         1 CLA     -0.055900
      2 CAB        78.8757   61.3806   42.0423 c8         1 CLA     -0.148500
      3 CAC        71.6169   58.1385   42.4369 a2         1 CLA     -0.012600
      4 CAD        73.5751   54.8483   35.2250 ck         1 CLA      0.398800
      5 NA         77.3055   57.4770   36.9853 ns         1 CLA     -0.225500
      6 CBA        79.1029   55.9622   32.7185 a2         1 CLA     -0.135000
      7 CBB        80.1145   61.3765   42.6203 c0         1 CLA     -0.395200
      8 CBC        71.5980   56.7239   43.0327 a3         1 CLA     -0.037700
      9 CBD        75.1706   54.9716   34.9617 a1         1 CLA     -0.053900
     10 NB         77.4416   59.3178   39.3253 nm         1 CLA     -0.295700
     11 OBD        72.7215   54.2101   34.5626 o2         1 CLA     -0.494600
     12 CGA        79.3797   54.4997   32.7228 c4         1 CLA      0.827000
     13 CGD        75.8520   53.6314   35.2756 c4         1 CLA      0.655300
     14 ND         74.4507   56.9635   37.8628 nm         1 CLA     -0.291600
     15 CED        75.6885   51.7200   36.6564 a3         1 CLA      0.005400
     16 CHA        75.7217   56.0067   35.9479 cs         1 CLA     -0.123800
     17 CHB        79.2751   58.8687   37.6253 aa         1 CLA     -0.291900
     18 CHC        76.2474   60.1303   41.4009 aa         1 CLA     -0.090400
     19 CHD        72.8639   57.0985   39.6668 aa         1 CLA     -0.052000
     20 CMA        80.7045   56.5357   36.1984 a3         1 CLA     -0.230700
     21 CMB        81.0122   60.6578   39.4323 a3         1 CLA     -0.180800
     22 CMC        73.9902   60.0350   43.5661 a3         1 CLA     -0.134000
     23 CMD        70.9719   55.3810   37.6160 a3         1 CLA     -0.141100
     24 C1         80.1836   52.6695   33.9204 a2         1 CLA      0.023000
     25 C1A        76.9758   56.6088   35.9930 ac         1 CLA     -0.015100
     26 C1B        78.7730   59.4572   38.8208 cr         1 CLA      0.054700
     27 C1C        75.0196   59.4609   41.2481 cn         1 CLA     -0.005600
     28 C1D        73.2686   56.6134   38.4246 ap         1 CLA     -0.047300
     29 O1A        78.9416   53.7588   31.8429 o2         1 CLA     -0.610800
     30 O1D        76.8204   53.2035   34.7412 o2         1 CLA     -0.558200
     31 C2         80.8769   52.3655   35.2608 c8         1 CLA     -0.325100
     32 C2A        78.1768   56.1787   35.1479 a1         1 CLA      0.098600
     33 C2B        79.5225   60.2203   39.7282 cb         1 CLA      0.088500
     34 C2C        73.9535   59.3757   42.2071 cb         1 CLA      0.053700
     35 C2D        72.5072   55.7765   37.5474 cb         1 CLA      0.058900
     36 O2A        80.1063   54.0629   33.7874 o1         1 CLA     -0.437200
     37 O2D        75.0994   53.0015   36.2675 o1         1 CLA     -0.357600
     38 C3         81.4724   51.1958   35.6846 c5         1 CLA      0.031200
     39 C3A        79.3062   57.1139   35.6954 a1         1 CLA      0.166800
     40 C3B        78.6513   60.6378   40.7799 cb         1 CLA      0.035000
     41 C3C        73.0069   58.4584   41.7955 cb         1 CLA     -0.089900
     42 C3D        73.3801   55.5271   36.5426 cb         1 CLA     -0.035900
     43 C4         80.6337   50.1744   36.5038 a3         1 CLA     -0.053300
     44 C4A        78.6313   57.9008   36.8436 ac         1 CLA      0.001800
     45 C4B        77.3785   60.0206   40.5104 cn         1 CLA     -0.020900
     46 C4C        73.5236   58.0255   40.5146 cr         1 CLA     -0.044400
     47 C4D        74.6541   56.1700   36.8408 c6         1 CLA     -0.046000
     48 C5         82.9138   50.9657   35.3915 a2         1 CLA     -0.070400
     49 C6         83.8473   52.0807   35.4035 a2         1 CLA      0.043900
     50 C7         84.0763   52.6452   36.8850 a2         1 CLA     -0.150000
     51 C8         85.0687   53.8430   37.1770 a1         1 CLA      0.064200
     52 C9         86.5036   53.3723   36.8357 a3         1 CLA     -0.259300
     53 C10        84.9784   54.2532   38.6849 a2         1 CLA     -0.071900
     54 C11        83.6478   54.8181   39.1058 a2         1 CLA      0.014500
     55 C12        83.6270   55.4375   40.4780 a2         1 CLA     -0.112100
     56 C13        82.2265   55.9362   40.9598 a1         1 CLA      0.089200
     57 C14        81.7077   57.2521   40.2199 a3         1 CLA     -0.239100
     58 C15        82.1583   56.2307   42.4894 a2         1 CLA     -0.102200
     59 C16        82.8926   57.5257   42.9385 a2         1 CLA      0.023900
     60 C17        82.8514   57.5764   44.4817 a2         1 CLA     -0.105700
     61 C18        83.4610   58.8481   45.0958 a1         1 CLA      0.206800
     62 C19        82.5458   60.1005   44.9113 a3         1 CLA     -0.280100
     63 C20        83.9568   58.6897   46.5737 a3         1 CLA     -0.280100
     64 NC         74.6668   58.5738   40.2072 nx         1 CLA     -0.309200
     65 MG         75.9259   58.1976   38.4904 mg         1 CLA      0.895000
     66 HMD3       70.8181   54.6074   36.8180 dc         1 CLA      0.064300
     67 HMD2       70.7098   55.0044   38.5390 dc         1 CLA      0.064300
     68 HMD1       70.5114   56.3113   37.4132 dc         1 CLA      0.064300
     69 HMC3       73.0213   60.5271   43.6802 dc         1 CLA      0.052100
     70 HMC2       74.0631   59.3362   44.3850 dc         1 CLA      0.052100
     71 HMC1       74.6821   60.8559   43.8494 dc         1 CLA      0.052100
     72 HMB3       81.7353   59.8589   39.4104 dc         1 CLA      0.063600
     73 HMB2       81.1881   61.1583   38.4650 dc         1 CLA      0.063600
     74 HMB1       81.4124   61.3644   40.1087 dc         1 CLA      0.063600
     75 HMA3       80.4676   55.7690   36.8835 dc         1 CLA      0.058300
     76 HMA2       81.2361   56.0352   35.4016 dc         1 CLA      0.058300
     77 HMA1       81.4812   57.2703   36.5877 dc         1 CLA      0.058300
     78 HED3       75.5396   51.0583   35.8023 dc         1 CLA      0.079300
     79 HED2       76.7974   51.6946   36.8553 dc         1 CLA      0.079300
     80 HED1       75.2422   51.3426   37.5424 dc         1 CLA      0.079300
     81 HBC3       70.5992   56.4569   43.3780 dc         1 CLA      0.016300
     82 HBC2       71.8629   56.0653   42.2019 dc         1 CLA      0.016300
     83 HBC1       72.2722   56.6301   43.9182 dc         1 CLA      0.016300
     84 HBB2       80.2958   61.7492   43.6274 da         1 CLA      0.183000
     85 HBB1       80.9724   60.8679   42.1370 da         1 CLA      0.183000
     86 HBA2       78.9344   56.2939   31.6623 dc         1 CLA      0.029400
     87 HBA1       79.9212   56.5520   33.0351 dc         1 CLA      0.029400
     88 HAC2       71.3438   58.7715   43.2627 dc         1 CLA      0.029300
     89 HAC1       70.8090   58.2300   41.7183 dc         1 CLA      0.029300
     90 HAA2       77.1851   55.9022   33.2515 dc         1 CLA      0.028700
     91 HAA1       77.8947   57.4989   33.3780 dc         1 CLA      0.028700
     92 H203       83.3039   57.8541   46.9365 dc         1 CLA      0.065600
     93 H202       84.9307   58.4142   46.6812 dc         1 CLA      0.065600
     94 H201       83.7824   59.5475   47.1314 dc         1 CLA      0.065600
     95 H193       82.6822   60.2626   43.8377 dc         1 CLA      0.065600
     96 H192       81.4934   59.9269   45.1921 dc         1 CLA      0.065600
     97 H191       82.8675   60.9928   45.5171 dc         1 CLA      0.065600
     98 H172       81.8882   57.5229   44.8201 dc         1 CLA      0.027600
     99 H171       83.3440   56.6513   44.8073 dc         1 CLA      0.027600
    100 H162       83.9038   57.5996   42.5005 dc         1 CLA      0.002900
    101 H161       82.2858   58.3627   42.6018 dc         1 CLA      0.002900
    102 H152       81.0408   56.3003   42.6649 dc         1 CLA      0.029100
    103 H151       82.5433   55.3550   43.0125 dc         1 CLA      0.029100
    104 H143       81.2198   56.8109   39.2931 dc         1 CLA      0.063600
    105 H142       80.8335   57.7569   40.7575 dc         1 CLA      0.063600
    106 H141       82.5272   57.9782   40.0811 dc         1 CLA      0.063600
    107 H122       83.9184   54.6235   41.1325 dc         1 CLA      0.032500
    108 H121       84.2877   56.3122   40.5455 dc         1 CLA      0.032500
    109 H112       83.2383   55.5133   38.3298 dc         1 CLA      0.006600
    110 H111       82.9024   53.9778   39.0922 dc         1 CLA      0.006600
    111 H102       85.2034   53.3011   39.2319 dc         1 CLA      0.024100
    112 H101       85.7595   54.9536   38.8750 dc         1 CLA      0.024100
    113 HHD        71.9350   56.6871   39.9389 da         1 CLA      0.174300
    114 HHC        76.3659   60.6882   42.3198 da         1 CLA      0.136800
    115 HHB        80.3626   59.1340   37.2662 da         1 CLA      0.138300
    116 HBD        75.3546   55.2651   33.9994 dc         1 CLA      0.107700
    117 HAB        78.0814   61.6652   42.6800 da         1 CLA      0.155200
    118 H93        86.5982   52.9908   35.7714 dc         1 CLA      0.069500
    119 H92        87.2661   54.2141   36.9477 dc         1 CLA      0.069500
    120 H91        86.7669   52.5795   37.5068 dc         1 CLA      0.069500
    121 H8         84.7989   54.6926   36.5889 dc         1 CLA      0.029300
    122 H72        83.1056   52.8182   37.3445 dc         1 CLA      0.044400
    123 H71        84.5391   51.7944   37.4420 dc         1 CLA      0.044400
    124 H62        84.7668   51.7338   35.0275 dc         1 CLA      0.015600
    125 H61        83.4558   52.9007   34.8129 dc         1 CLA      0.015600
    126 H52        83.2112   50.1524   36.0269 dc         1 CLA      0.033200
    127 H51        82.9868   50.6110   34.3530 dc         1 CLA      0.033200
    128 H43        80.5508   50.3632   37.5610 dc         1 CLA      0.037000
    129 H42        79.6109   50.2795   36.1706 dc         1 CLA      0.037000
    130 H41        80.8942   49.1442   36.2871 dc         1 CLA      0.037000
    131 H3A        79.5594   57.8903   35.0078 dc         1 CLA      0.041100
    132 H2A        78.4038   55.1272   35.3894 dc         1 CLA      0.083100
    133 H2         80.9006   53.2037   35.9840 da         1 CLA      0.180900
    134 H18        84.4303   59.2121   44.6457 dc         1 CLA     -0.003900
    135 H13        81.5257   55.1831   40.8215 dc         1 CLA      0.019700
    136 H12        79.2051   52.2514   33.9082 dc         1 CLA      0.120400
    137 H11        80.8477   52.2706   33.1861 dc         1 CLA      0.120400
    138 C1         68.1130   60.8961   48.4664 Z1         2 LUT      0.509236
    139 C2         66.8923   60.5687   49.3249 Z2         2 LUT     -0.434695
    140 C3         65.8789   61.7202   49.6896 Z3         2 LUT      0.437453
    141 O3         66.3543   62.1457   50.9861 S1         2 LUT     -0.547129
    142 C4         65.9770   62.8334   48.6733 Z4         2 LUT     -0.468603
    143 C5         66.6029   62.5338   47.3074 Z5         2 LUT      0.279246
    144 C6         67.6309   61.6395   47.2458 Z6         2 LUT     -0.305473
    145 C7         68.0697   61.0127   46.0008 Z7         2 LUT      0.069402
    146 C8         68.9861   61.7164   45.3208 Z8         2 LUT     -0.191631
    147 C9         69.5787   61.3497   44.0263 Z9         2 LUT      0.196698
    148 C10        70.6614   61.9936   43.5139 Y1         2 LUT     -0.208611
    149 C11        71.3155   61.9090   42.2655 Y2         2 LUT      0.030784
    150 C12        72.5324   62.4945   42.0710 Y3         2 LUT     -0.220316
    151 C13        73.4567   62.3005   40.9928 Y4         2 LUT      0.215937
    152 C14        74.7007   62.9398   41.1093 Y5         2 LUT     -0.185793
    153 C15        75.7221   63.0106   40.1851 Y6         2 LUT     -0.057835
    154 C16        68.8608   59.5811   48.2664 Y7         2 LUT     -0.405615
    155 C17        69.0312   61.7932   49.3437 Y7         2 LUT     -0.405615
    156 C18        65.9787   63.2995   46.1381 Y9         2 LUT     -0.369639
    157 C19        68.9120   60.2807   43.1702 W1         2 LUT     -0.333362
    158 C20        73.0324   61.5346   39.7490 W2         2 LUT     -0.323439
    159 C21        87.3097   63.7303   34.3900 Z1         2 LUT      0.406104
    160 C22        88.4801   63.4467   33.4358 Z2         2 LUT     -0.404965
    161 C23        88.7001   64.5032   32.3563 Z3         2 LUT      0.391255
    162 O23        89.3886   63.9501   31.2749 S1         2 LUT     -0.528210
    163 C24        87.4723   65.2811   32.0376 W6         2 LUT     -0.258361
    164 C25        86.2893   65.1426   32.6362 Z5         2 LUT      0.133546
    165 C26        85.9377   64.1297   33.7245 W8         2 LUT     -0.147008
    166 C27        84.9987   64.7345   34.6423 Z7         2 LUT      0.023843
    167 C28        84.0876   64.1185   35.4850 Z8         2 LUT     -0.216987
    168 C29        83.2784   64.8056   36.4904 Z9         2 LUT      0.206524
    169 C30        82.2558   64.1201   37.0527 Y1         2 LUT     -0.215556
    170 C31        81.2577   64.5910   37.9797 Y2         2 LUT      0.025142
    171 C32        80.1389   63.9288   38.3361 Y3         2 LUT     -0.212209
    172 C33        79.1526   64.3771   39.3150 Y4         2 LUT      0.240937
    173 C34        77.9912   63.6500   39.4545 Y5         2 LUT     -0.218862
    174 C35        76.8716   63.7500   40.3795 Y6         2 LUT     -0.023547
    175 C36        87.9279   64.8554   35.3667 Y7         2 LUT     -0.393485
    176 C37        87.0429   62.4274   35.2484 Y7         2 LUT     -0.393485
    177 C38        85.2173   66.0086   32.0474 Y9         2 LUT     -0.387526
    178 C39        83.6954   66.2764   36.8665 W1         2 LUT     -0.322618
    179 C40        79.4022   65.6915   40.1254 W2         2 LUT     -0.358472
    180 H403       78.9127   65.7458   41.0299 R7         2 LUT      0.097720
    181 H402       80.4545   65.8982   40.3399 R7         2 LUT      0.097720
    182 H401       79.0285   66.5990   39.6122 R7         2 LUT      0.097720
    183 H393       83.5686   66.3847   37.9088 R4         2 LUT      0.082505
    184 H392       84.7647   66.3563   36.9336 R4         2 LUT      0.082505
    185 H391       83.3704   67.1018   36.2024 R4         2 LUT      0.082505
    186 H383       85.4075   67.0635   32.1782 R1         2 LUT      0.104030
    187 H382       85.2066   65.9005   30.9543 R1         2 LUT      0.104030
    188 H381       84.1658   65.8179   32.3487 R1         2 LUT      0.104030
    189 H373       86.5991   61.6907   34.5801 T4         2 LUT      0.089537
    190 H372       87.9229   62.0812   35.7067 T4         2 LUT      0.089537
    191 H371       86.2712   62.5833   36.0333 T4         2 LUT      0.089537
    192 H363       88.8343   64.5345   35.7539 T4         2 LUT      0.089537
    193 H362       88.0988   65.8529   34.9312 T4         2 LUT      0.089537
    194 H361       87.2644   64.9140   36.2140 T4         2 LUT      0.089537
    195 H222       89.4107   63.3156   34.0046 U2         2 LUT      0.127376
    196 H221       88.4549   62.5155   32.8980 U2         2 LUT      0.127376
    197 H203       72.1018   61.8710   39.3627 R7         2 LUT      0.087068
    198 H202       73.8092   61.5774   39.0103 R7         2 LUT      0.087068
    199 H201       72.9585   60.4960   39.9148 R7         2 LUT      0.087068
    200 H193       68.2618   60.7966   42.4583 R4         2 LUT      0.089716
    201 H192       69.5791   59.7011   42.5304 R4         2 LUT      0.089716
    202 H191       68.3858   59.5193   43.7913 R4         2 LUT      0.089716
    203 H183       66.4135   63.0629   45.1476 R1         2 LUT      0.094572
    204 H182       64.8281   63.1578   46.1052 R1         2 LUT      0.094572
    205 H181       66.2250   64.4160   46.3448 R1         2 LUT      0.094572
    206 H173       68.6020   62.7914   49.1999 T4         2 LUT      0.093752
    207 H172       69.0736   61.6141   50.3589 T4         2 LUT      0.093752
    208 H171       70.0576   61.9156   48.9402 T4         2 LUT      0.093752
    209 H163       69.1130   59.0336   49.1684 T4         2 LUT      0.093752
    210 H162       68.3161   58.9680   47.6247 T4         2 LUT      0.093752
    211 H161       69.8090   59.7993   47.7699 T4         2 LUT      0.093752
    212 HO3        65.7515   61.8637   51.6713 Q1         2 LUT      0.300121
    213 H8         69.2946   62.6147   45.8769 U7         2 LUT      0.080784
    214 H7         67.5243   60.1740   45.5335 U6         2 LUT      0.042190
    215 H42        64.9632   63.1697   48.4382 U5         2 LUT      0.145166
    216 H41        66.5492   63.6019   49.1875 U5         2 LUT      0.145166
    217 H35        77.0360   64.3740   41.3024 T3         2 LUT      0.077919
    218 H34        77.9142   62.7526   38.7544 T2         2 LUT      0.073626
    219 H32        79.9413   63.0296   37.9034 T1         2 LUT      0.092510
    220 H31        81.3505   65.6046   38.3689 U9         2 LUT      0.070048
    221 H30        82.0405   63.1166   36.6327 U8         2 LUT      0.085442
    222 H3         64.8386   61.4709   49.7141 U3         2 LUT     -0.031596
    223 H28        84.0739   62.9830   35.3605 U7         2 LUT      0.084728
    224 H27        85.1834   65.8268   34.8653 U6         2 LUT      0.087291
    225 H26        85.5967   63.2211   33.1179 Q6         2 LUT      0.075325
    226 H24        87.5582   65.9468   31.2158 Q5         2 LUT      0.094482
    227 H23        89.4080   65.2633   32.7403 U3         2 LUT     -0.024869
    228 H22        66.3736   59.9475   48.6224 U2         2 LUT      0.127376
    229 H21        67.0084   59.9855   50.2684 U2         2 LUT      0.127376
    230 H15        75.7205   62.3289   39.3236 T3         2 LUT      0.093200
    231 H14        74.8831   63.5443   42.0046 T2         2 LUT      0.068865
    232 H12        72.9477   63.0201   42.9260 T1         2 LUT      0.095507
    233 H11        70.8518   61.2695   41.5101 U9         2 LUT      0.068930
    234 H10        71.1291   62.6963   44.2212 U8         2 LUT      0.083911
    235 H1         88.8264   63.4923   30.6321 Q1         2 LUT      0.297311
@<TRIPOS>BOND
    1     6     1 1
    2     7     2 1
    3     8     3 1
    4     9     4 1
    5    11     4 1
    6    12     6 1
    7    13     9 1
    8    16     9 1
    9    25     5 1
   10    25    16 1
   11    26    10 1
   12    26    17 1
   13    27    18 1
   14    28    14 1
   15    28    19 1
   16    29    12 1
   17    30    13 1
   18    31    24 1
   19    32     1 1
   20    32    25 1
   21    33    21 1
   22    33    26 1
   23    34    22 1
   24    34    27 1
   25    35    23 1
   26    35    28 1
   27    36    12 1
   28    36    24 1
   29    37    13 1
   30    37    15 1
   31    38    31 1
   32    39    20 1
   33    39    32 1
   34    40     2 1
   35    40    33 1
   36    41     3 1
   37    41    34 1
   38    42     4 1
   39    42    35 1
   40    43    38 1
   41    44     5 1
   42    44    17 1
   43    44    39 1
   44    45    10 1
   45    45    18 1
   46    45    40 1
   47    46    19 1
   48    46    41 1
   49    47    14 1
   50    47    16 1
   51    47    42 1
   52    48    38 1
   53    49    48 1
   54    50    49 1
   55    51    50 1
   56    52    51 1
   57    53    51 1
   58    54    53 1
   59    55    54 1
   60    56    55 1
   61    57    56 1
   62    58    56 1
   63    59    58 1
   64    60    59 1
   65    61    60 1
   66    62    61 1
   67    63    61 1
   68    64    27 1
   69    64    46 1
   70    65     5 1
   71    65    10 1
   72    65    64 1
   73    65    14 1
   74    66    23 1
   75    67    23 1
   76    68    23 1
   77    69    22 1
   78    70    22 1
   79    71    22 1
   80    72    21 1
   81    73    21 1
   82    74    21 1
   83    75    20 1
   84    76    20 1
   85    77    20 1
   86    78    15 1
   87    79    15 1
   88    80    15 1
   89    81     8 1
   90    82     8 1
   91    83     8 1
   92    84     7 1
   93    85     7 1
   94    86     6 1
   95    87     6 1
   96    88     3 1
   97    89     3 1
   98    90     1 1
   99    91     1 1
  100    92    63 1
  101    93    63 1
  102    94    63 1
  103    95    62 1
  104    96    62 1
  105    97    62 1
  106    98    60 1
  107    99    60 1
  108   100    59 1
  109   101    59 1
  110   102    58 1
  111   103    58 1
  112   104    57 1
  113   105    57 1
  114   106    57 1
  115   107    55 1
  116   108    55 1
  117   109    54 1
  118   110    54 1
  119   111    53 1
  120   112    53 1
  121   113    19 1
  122   114    18 1
  123   115    17 1
  124   116     9 1
  125   117     2 1
  126   118    52 1
  127   119    52 1
  128   120    52 1
  129   121    51 1
  130   122    50 1
  131   123    50 1
  132   124    49 1
  133   125    49 1
  134   126    48 1
  135   127    48 1
  136   128    43 1
  137   129    43 1
  138   130    43 1
  139   131    39 1
  140   132    32 1
  141   133    31 1
  142   134    61 1
  143   135    56 1
  144   136    24 1
  145   137    24 1
  146   139   138 1
  147   140   139 1
  148   141   140 1
  149   142   140 1
  150   143   142 1
  151   144   138 1
  152   144   143 1
  153   145   144 1
  154   146   145 1
  155   147   146 1
  156   148   147 1
  157   149   148 1
  158   150   149 1
  159   151   150 1
  160   152   151 1
  161   153   152 1
  162   154   138 1
  163   155   138 1
  164   156   143 1
  165   157   147 1
  166   158   151 1
  167   160   159 1
  168   161   160 1
  169   162   161 1
  170   163   161 1
  171   164   163 1
  172   165   159 1
  173   165   164 1
  174   166   165 1
  175   167   166 1
  176   168   167 1
  177   169   168 1
  178   170   169 1
  179   171   170 1
  180   172   171 1
  181   173   172 1
  182   174   153 1
  183   174   173 1
  184   175   159 1
  185   176   159 1
  186   177   164 1
  187   178   168 1
  188   179   172 1
  189   180   179 1
  190   181   179 1
  191   182   179 1
  192   183   178 1
  193   184   178 1
  194   185   178 1
  195   186   177 1
  196   187   177 1
  197   188   177 1
  198   189   176 1
  199   190   176 1
  200   191   176 1
  201   192   175 1
  202   193   175 1
  203   194   175 1
  204   195   160 1
  205   196   160 1
  206   197   158 1
  207   198   158 1
  208   199   158 1
  209   200   157 1
  210   201   157 1
  211   202   157 1
  212   203   156 1
  213   204   156 1
  214   205   156 1
  215   206   155 1
  216   207   155 1
  217   208   155 1
  218   209   154 1
  219   210   154 1
  220   211   154 1
  221   212   141 1
  222   213   146 1
  223   214   145 1
  224   215   142 1
  225   216   142 1
  226   217   174 1
  227   218   173 1
  228   219   171 1
  229   220   170 1
  230   221   169 1
  231   222   140 1
  232   223   167 1
  233   224   166 1
  234   225   165 1
  235   226   163 1
  236   227   161 1
  237   228   139 1
  238   229   139 1
  239   230   153 1
  240   231   152 1
  241   232   150 1
  242   233   149 1
  243   234   148 1
  244   235   162 1
  245   65    153 1
  246   65    174 1
@<TRIPOS>SUBSTRUCTURE
      1 CLA               1 ****               0 ****  **** 
      2 LUT             138 ****               0 ****  **** 
