@<TRIPOS>MOLECULE
Cpptraj generated mol2 file.
  235   246     2     0     0
SMALL
USER_CHARGES


@<TRIPOS>ATOM
      1 CAA        78.0924   57.8429   34.9672 a2         1 CLA     -0.055900
      2 CAB        77.5123   61.3351   44.0757 c8         1 CLA     -0.148500
      3 CAC        70.6278   56.7022   43.0192 a2         1 CLA     -0.012600
      4 CAD        74.3783   54.7882   35.9345 ck         1 CLA      0.398800
      5 NA         76.9019   58.2179   38.3409 ns         1 CLA     -0.225500
      6 CBA        79.3180   57.7962   33.9673 a2         1 CLA     -0.135000
      7 CBB        78.6617   61.4398   44.7713 c0         1 CLA     -0.395200
      8 CBC        70.7167   55.2310   43.1982 a3         1 CLA     -0.037700
      9 CBD        75.7565   55.4606   35.7993 a1         1 CLA     -0.053900
     10 NB         76.4448   59.6282   40.7741 nm         1 CLA     -0.295700
     11 OBD        73.9698   53.9314   35.1545 o2         1 CLA     -0.494600
     12 CGA        79.9227   56.4671   33.5737 c4         1 CLA      0.827000
     13 CGD        76.7578   54.4294   35.8468 c4         1 CLA      0.655300
     14 ND         74.1754   56.9331   38.6661 nm         1 CLA     -0.291600
     15 CED        77.3812   52.4290   36.9296 a3         1 CLA      0.005400
     16 CHA        75.8536   56.4407   36.9673 cs         1 CLA     -0.123800
     17 CHB        78.3929   59.9582   39.2732 aa         1 CLA     -0.291900
     18 CHC        74.9874   59.6443   42.7747 aa         1 CLA     -0.090400
     19 CHD        72.1486   56.6770   40.0888 aa         1 CLA     -0.052000
     20 CMA        80.4693   58.0961   37.5863 a3         1 CLA     -0.230700
     21 CMB        79.5187   61.7396   41.5802 a3         1 CLA     -0.180800
     22 CMC        72.4848   58.7057   44.6999 a3         1 CLA     -0.134000
     23 CMD        71.3472   54.5057   37.8218 a3         1 CLA     -0.141100
     24 C1         81.5452   54.9643   34.5286 a2         1 CLA      0.023000
     25 C1A        76.8958   57.3615   37.2145 ac         1 CLA     -0.015100
     26 C1B        77.6383   60.3189   40.3968 cr         1 CLA      0.054700
     27 C1C        73.8440   58.7690   42.4659 cn         1 CLA     -0.005600
     28 C1D        72.9162   56.3273   38.9178 ap         1 CLA     -0.047300
     29 O1A        79.7972   55.7049   32.6466 o2         1 CLA     -0.610800
     30 O1D        77.7097   54.3439   35.1065 o2         1 CLA     -0.558200
     31 C2         82.5655   55.0383   35.6590 c8         1 CLA     -0.325100
     32 C2A        78.2560   57.4894   36.4795 a1         1 CLA      0.098600
     33 C2B        78.1678   61.0937   41.5661 cb         1 CLA      0.088500
     34 C2C        72.7211   58.3019   43.3072 cb         1 CLA      0.053700
     35 C2D        72.5674   55.3258   37.8757 cb         1 CLA      0.058900
     36 O2A        80.7294   56.2139   34.6940 o1         1 CLA     -0.437200
     37 O2D        76.3991   53.5296   36.8623 o1         1 CLA     -0.357600
     38 C3         83.0218   53.9692   36.3316 c5         1 CLA      0.031200
     39 C3A        79.0684   58.5940   37.1869 a1         1 CLA      0.166800
     40 C3B        77.2875   60.8556   42.6837 cb         1 CLA      0.035000
     41 C3C        71.9039   57.4444   42.5706 cb         1 CLA     -0.089900
     42 C3D        73.7258   55.3519   37.0890 cb         1 CLA     -0.035900
     43 C4         82.0540   53.2650   37.2672 a3         1 CLA     -0.053300
     44 C4A        78.0681   58.9508   38.3588 ac         1 CLA      0.001800
     45 C4B        76.1522   59.9921   42.0830 cn         1 CLA     -0.020900
     46 C4C        72.5921   57.3884   41.2428 cr         1 CLA     -0.044400
     47 C4D        74.6375   56.3425   37.6383 c6         1 CLA     -0.046000
     48 C5         84.4130   53.4592   36.2237 a2         1 CLA     -0.070400
     49 C6         85.4493   54.4124   36.7842 a2         1 CLA      0.043900
     50 C7         85.5158   54.3203   38.3121 a2         1 CLA     -0.150000
     51 C8         86.4950   55.3222   38.9985 a1         1 CLA      0.064200
     52 C9         87.9878   54.8271   38.8522 a3         1 CLA     -0.259300
     53 C10        86.1712   55.5790   40.5310 a2         1 CLA     -0.071900
     54 C11        84.9607   56.5470   40.7328 a2         1 CLA      0.014500
     55 C12        84.8785   57.0888   42.1431 a2         1 CLA     -0.112100
     56 C13        84.8208   56.1310   43.3930 a1         1 CLA      0.089200
     57 C14        83.4967   55.3459   43.4535 a3         1 CLA     -0.239100
     58 C15        85.0792   56.8673   44.7443 a2         1 CLA     -0.102200
     59 C16        83.9957   58.0013   44.9921 a2         1 CLA      0.023900
     60 C17        84.3412   58.8025   46.2966 a2         1 CLA     -0.105700
     61 C18        83.5219   60.1457   46.6003 a1         1 CLA      0.206800
     62 C19        82.0587   59.9319   46.8026 a3         1 CLA     -0.280100
     63 C20        84.1492   61.0267   47.6369 a3         1 CLA     -0.280100
     64 NC         73.7487   58.2045   41.1925 nx         1 CLA     -0.309200
     65 MG         75.2184   58.4239   39.6587 mg         1 CLA      0.895000
     66 HMD3       71.5340   53.5714   37.2803 dc         1 CLA      0.064300
     67 HMD2       71.1443   54.2459   38.8219 dc         1 CLA      0.064300
     68 HMD1       70.5343   55.0531   37.3426 dc         1 CLA      0.064300
     69 HMC3       71.7202   59.5064   44.5931 dc         1 CLA      0.052100
     70 HMC2       72.2214   57.7876   45.3468 dc         1 CLA      0.052100
     71 HMC1       73.3644   59.2632   45.0669 dc         1 CLA      0.052100
     72 HMB3       80.4157   61.1677   41.7505 dc         1 CLA      0.063600
     73 HMB2       79.7232   62.2005   40.6148 dc         1 CLA      0.063600
     74 HMB1       79.7140   62.5449   42.2696 dc         1 CLA      0.063600
     75 HMA3       81.0368   57.7845   36.7284 dc         1 CLA      0.058300
     76 HMA2       80.9982   58.8746   38.0225 dc         1 CLA      0.058300
     77 HMA1       80.2831   57.2837   38.3788 dc         1 CLA      0.058300
     78 HED3       77.1761   51.7479   36.0718 dc         1 CLA      0.079300
     79 HED2       78.4062   52.8364   36.9669 dc         1 CLA      0.079300
     80 HED1       77.2445   51.9331   37.8686 dc         1 CLA      0.079300
     81 HBC3       70.5784   54.6621   42.2782 dc         1 CLA      0.016300
     82 HBC2       71.6907   54.9472   43.5344 dc         1 CLA      0.016300
     83 HBC1       70.0776   54.8921   43.9904 dc         1 CLA      0.016300
     84 HBB2       78.5792   61.7891   45.8217 da         1 CLA      0.183000
     85 HBB1       79.6886   61.3017   44.3620 da         1 CLA      0.183000
     86 HBA2       79.1035   58.2930   33.0147 dc         1 CLA      0.029400
     87 HBA1       80.1670   58.4060   34.4186 dc         1 CLA      0.029400
     88 HAC2       70.4999   57.0954   44.0379 dc         1 CLA      0.029300
     89 HAC1       69.7192   56.9588   42.4149 dc         1 CLA      0.029300
     90 HAA2       77.2267   57.2615   34.5816 dc         1 CLA      0.028700
     91 HAA1       77.7530   58.8664   34.9256 dc         1 CLA      0.028700
     92 H203       83.5467   61.9582   47.8050 dc         1 CLA      0.065600
     93 H202       84.3428   60.5159   48.5778 dc         1 CLA      0.065600
     94 H201       85.1012   61.4139   47.2272 dc         1 CLA      0.065600
     95 H193       81.7169   59.4938   45.8950 dc         1 CLA      0.065600
     96 H192       81.7900   59.3525   47.7139 dc         1 CLA      0.065600
     97 H191       81.5813   60.8839   46.8624 dc         1 CLA      0.065600
     98 H172       84.1620   58.0931   47.1203 dc         1 CLA      0.027600
     99 H171       85.3391   59.1401   46.3673 dc         1 CLA      0.027600
    100 H162       83.8686   58.6576   44.0890 dc         1 CLA      0.002900
    101 H161       83.0377   57.5012   45.1744 dc         1 CLA      0.002900
    102 H152       84.8953   56.0919   45.4759 dc         1 CLA      0.029100
    103 H151       86.0637   57.2888   44.7304 dc         1 CLA      0.029100
    104 H143       82.5921   56.0056   43.3828 dc         1 CLA      0.063600
    105 H142       83.4003   54.6382   42.5973 dc         1 CLA      0.063600
    106 H141       83.3780   54.7535   44.4028 dc         1 CLA      0.063600
    107 H122       85.7508   57.6462   42.3848 dc         1 CLA      0.032500
    108 H121       84.0234   57.8034   42.0235 dc         1 CLA      0.032500
    109 H112       85.2368   57.3560   40.0741 dc         1 CLA      0.006600
    110 H111       83.9801   56.1662   40.3143 dc         1 CLA      0.006600
    111 H102       85.9640   54.5649   40.9195 dc         1 CLA      0.024100
    112 H101       86.9893   55.9270   41.1036 dc         1 CLA      0.024100
    113 HHD        71.1292   56.2998   40.1948 da         1 CLA      0.174300
    114 HHC        75.0410   60.1702   43.7224 da         1 CLA      0.136800
    115 HHB        79.3298   60.4375   39.0761 da         1 CLA      0.138300
    116 HBD        75.7371   56.0276   34.9020 dc         1 CLA      0.107700
    117 HAB        76.6294   61.8040   44.6032 da         1 CLA      0.155200
    118 H93        88.7780   55.5004   39.2612 dc         1 CLA      0.069500
    119 H92        88.0665   53.8683   39.2374 dc         1 CLA      0.069500
    120 H91        88.2654   54.7727   37.7905 dc         1 CLA      0.069500
    121 H8         86.5353   56.2916   38.5035 dc         1 CLA      0.029300
    122 H72        84.5569   54.5581   38.7587 dc         1 CLA      0.044400
    123 H71        85.8989   53.2857   38.4578 dc         1 CLA      0.044400
    124 H62        86.4592   54.2466   36.4342 dc         1 CLA      0.015600
    125 H61        85.2665   55.4078   36.4648 dc         1 CLA      0.015600
    126 H52        84.4200   52.4439   36.5115 dc         1 CLA      0.033200
    127 H51        84.5369   53.4184   35.1552 dc         1 CLA      0.033200
    128 H43        82.2457   52.2112   37.2137 dc         1 CLA      0.037000
    129 H42        82.3728   53.5892   38.2913 dc         1 CLA      0.037000
    130 H41        81.0299   53.5906   37.0922 dc         1 CLA      0.037000
    131 H3A        79.1796   59.4782   36.5496 dc         1 CLA      0.041100
    132 H2A        78.8608   56.5260   36.4959 dc         1 CLA      0.083100
    133 H2         82.7797   56.0493   35.9213 da         1 CLA      0.180900
    134 H18        83.6200   60.6167   45.6002 dc         1 CLA     -0.003900
    135 H13        85.5216   55.2957   43.1832 dc         1 CLA      0.019700
    136 H12        80.9056   54.1053   34.5643 dc         1 CLA      0.120400
    137 H11        82.1342   54.9550   33.5834 dc         1 CLA      0.120400
    138 C1         67.9902   60.9943   50.4706 Z1         2 LUT      0.509236
    139 C2         66.5952   60.7057   51.0429 Z2         2 LUT     -0.434695
    140 C3         65.6803   61.9547   51.4464 Z3         2 LUT      0.437453
    141 O3         65.8272   62.3854   52.8616 S1         2 LUT     -0.547129
    142 C4         66.0153   63.1970   50.5510 Z4         2 LUT     -0.468603
    143 C5         66.7365   62.7851   49.2526 Z5         2 LUT      0.279246
    144 C6         67.6938   61.8409   49.2089 Z6         2 LUT     -0.305473
    145 C7         67.9680   61.1859   47.9508 Z7         2 LUT      0.069402
    146 C8         68.5486   61.7864   46.8820 Z8         2 LUT     -0.191631
    147 C9         69.0926   61.2789   45.5722 Z9         2 LUT      0.196698
    148 C10        69.8662   62.1143   44.8556 Y1         2 LUT     -0.208611
    149 C11        70.6681   61.8727   43.6803 Y2         2 LUT      0.030784
    150 C12        71.8091   62.6560   43.4637 Y3         2 LUT     -0.220316
    151 C13        72.7581   62.5858   42.3256 Y4         2 LUT      0.215937
    152 C14        73.7913   63.5416   42.4008 Y5         2 LUT     -0.185793
    153 C15        74.9108   63.5835   41.4787 Y6         2 LUT     -0.057835
    154 C16        68.5751   59.5504   50.1624 Y7         2 LUT     -0.405615
    155 C17        68.7972   61.7797   51.5075 Y7         2 LUT     -0.405615
    156 C18        65.9927   63.3034   48.0684 Y9         2 LUT     -0.369639
    157 C19        68.7505   59.9643   44.9875 W1         2 LUT     -0.333362
    158 C20        72.7480   61.5447   41.2418 W2         2 LUT     -0.323439
    159 C21        86.5052   65.1380   35.9063 Z1         2 LUT      0.406104
    160 C22        87.1819   64.5049   34.6623 Z2         2 LUT     -0.404965
    161 C23        87.4663   65.5588   33.5668 Z3         2 LUT      0.391255
    162 O23        88.3555   64.9913   32.5414 S1         2 LUT     -0.528210
    163 C24        86.2062   66.2851   33.1906 W6         2 LUT     -0.258361
    164 C25        85.1155   66.3973   33.9467 Z5         2 LUT      0.133546
    165 C26        85.1146   65.7049   35.2588 W8         2 LUT     -0.147008
    166 C27        84.2976   66.4180   36.3388 Z7         2 LUT      0.023843
    167 C28        83.1783   65.8405   36.9069 Z8         2 LUT     -0.216987
    168 C29        82.3930   66.2260   38.0998 Z9         2 LUT      0.206524
    169 C30        81.3154   65.4960   38.5035 Y1         2 LUT     -0.215556
    170 C31        80.4886   65.6872   39.7052 Y2         2 LUT      0.025142
    171 C32        79.4000   64.8533   39.8894 Y3         2 LUT     -0.212209
    172 C33        78.3309   64.9015   40.9033 Y4         2 LUT      0.240937
    173 C34        77.1288   64.2156   40.7852 Y5         2 LUT     -0.218862
    174 C35        76.0970   64.1564   41.7418 Y6         2 LUT     -0.023547
    175 C36        87.4608   66.0996   36.6300 Y7         2 LUT     -0.393485
    176 C37        86.2708   63.9390   36.9271 Y7         2 LUT     -0.393485
    177 C38        83.8784   67.1251   33.5551 Y9         2 LUT     -0.387526
    178 C39        82.9236   67.3791   38.9562 W1         2 LUT     -0.322618
    179 C40        78.7996   65.5074   42.2517 W2         2 LUT     -0.358472
    180 H403       78.0553   66.2326   42.6330 R7         2 LUT      0.097720
    181 H402       78.8522   64.7649   43.0488 R7         2 LUT      0.097720
    182 H401       79.7354   65.9815   42.2044 R7         2 LUT      0.097720
    183 H393       83.9338   67.7084   38.7972 R4         2 LUT      0.082505
    184 H392       82.3305   68.1943   38.5512 R4         2 LUT      0.082505
    185 H391       82.7590   67.2695   40.0211 R4         2 LUT      0.082505
    186 H383       83.9055   67.4127   32.4677 R1         2 LUT      0.104030
    187 H382       83.0527   66.3876   33.6904 R1         2 LUT      0.104030
    188 H381       83.7238   68.0143   34.2153 R1         2 LUT      0.104030
    189 H373       85.6633   63.1860   36.3986 T4         2 LUT      0.089537
    190 H372       87.2310   63.5605   37.2179 T4         2 LUT      0.089537
    191 H371       85.7186   64.2416   37.8224 T4         2 LUT      0.089537
    192 H363       88.3668   65.4797   36.8763 T4         2 LUT      0.089537
    193 H362       87.7117   66.9909   36.0061 T4         2 LUT      0.089537
    194 H361       86.8841   66.5336   37.4613 T4         2 LUT      0.089537
    195 H222       88.1417   64.0299   34.8996 U2         2 LUT      0.127376
    196 H221       86.5150   63.7238   34.2080 U2         2 LUT      0.127376
    197 H203       72.3348   62.0062   40.3515 R7         2 LUT      0.087068
    198 H202       73.7882   61.1438   41.1126 R7         2 LUT      0.087068
    199 H201       72.1404   60.6876   41.4392 R7         2 LUT      0.087068
    200 H193       67.8183   59.5438   45.3981 R4         2 LUT      0.089716
    201 H192       68.5894   59.9540   43.9391 R4         2 LUT      0.089716
    202 H191       69.5901   59.2430   45.2267 R4         2 LUT      0.089716
    203 H183       66.1740   64.3705   48.0568 R1         2 LUT      0.094572
    204 H182       66.4460   62.9692   47.1027 R1         2 LUT      0.094572
    205 H181       64.9547   62.9863   48.2173 R1         2 LUT      0.094572
    206 H173       69.1599   61.3042   52.4445 T4         2 LUT      0.093752
    207 H172       69.6838   62.1785   50.9628 T4         2 LUT      0.093752
    208 H171       68.3236   62.6821   51.9989 T4         2 LUT      0.093752
    209 H163       67.8969   58.9063   49.6103 T4         2 LUT      0.093752
    210 H162       69.5527   59.6174   49.6416 T4         2 LUT      0.093752
    211 H161       68.8181   59.1017   51.1330 T4         2 LUT      0.093752
    212 HO3        65.3995   61.7863   53.5296 Q1         2 LUT      0.300121
    213 H8         68.7884   62.8128   47.0592 U7         2 LUT      0.080784
    214 H7         67.6907   60.1561   47.7549 U6         2 LUT      0.042190
    215 H42        65.0470   63.7034   50.3836 U5         2 LUT      0.145166
    216 H41        66.7431   63.8364   51.0240 U5         2 LUT      0.145166
    217 H35        76.1711   64.7356   42.6797 T3         2 LUT      0.077919
    218 H34        76.9767   63.7558   39.8218 T2         2 LUT      0.073626
    219 H32        79.2189   64.1075   39.1063 T1         2 LUT      0.092510
    220 H31        80.6167   66.4877   40.4135 U9         2 LUT      0.070048
    221 H30        81.0584   64.5831   37.9582 U8         2 LUT      0.085442
    222 H3         64.6301   61.7734   51.1938 U3         2 LUT     -0.031596
    223 H28        82.8400   64.9173   36.4521 U7         2 LUT      0.084728
    224 H27        84.7598   67.3923   36.6394 U6         2 LUT      0.087291
    225 H26        84.6396   64.7948   34.9398 Q6         2 LUT      0.075325
    226 H24        86.2392   66.7055   32.1756 Q5         2 LUT      0.094482
    227 H23        88.0003   66.4826   33.9399 U3         2 LUT     -0.024869
    228 H22        65.9937   60.2351   50.2740 U2         2 LUT      0.127376
    229 H21        66.6656   60.0173   51.8970 U2         2 LUT      0.127376
    230 H15        74.8034   63.0149   40.5254 T3         2 LUT      0.093200
    231 H14        73.9482   64.1397   43.2924 T2         2 LUT      0.068865
    232 H12        72.0282   63.4535   44.2213 T1         2 LUT      0.095507
    233 H11        70.5461   61.0215   43.0251 U9         2 LUT      0.068930
    234 H10        70.0244   63.1140   45.2271 U8         2 LUT      0.083911
    235 H1         87.9855   64.3004   31.9889 Q1         2 LUT      0.297311
@<TRIPOS>BOND
    1     6     1 1
    2     7     2 1
    3     8     3 1
    4     9     4 1
    5    11     4 1
    6    12     6 1
    7    13     9 1
    8    16     9 1
    9    25     5 1
   10    25    16 1
   11    26    10 1
   12    26    17 1
   13    27    18 1
   14    28    14 1
   15    28    19 1
   16    29    12 1
   17    30    13 1
   18    31    24 1
   19    32     1 1
   20    32    25 1
   21    33    21 1
   22    33    26 1
   23    34    22 1
   24    34    27 1
   25    35    23 1
   26    35    28 1
   27    36    12 1
   28    36    24 1
   29    37    13 1
   30    37    15 1
   31    38    31 1
   32    39    20 1
   33    39    32 1
   34    40     2 1
   35    40    33 1
   36    41     3 1
   37    41    34 1
   38    42     4 1
   39    42    35 1
   40    43    38 1
   41    44     5 1
   42    44    17 1
   43    44    39 1
   44    45    10 1
   45    45    18 1
   46    45    40 1
   47    46    19 1
   48    46    41 1
   49    47    14 1
   50    47    16 1
   51    47    42 1
   52    48    38 1
   53    49    48 1
   54    50    49 1
   55    51    50 1
   56    52    51 1
   57    53    51 1
   58    54    53 1
   59    55    54 1
   60    56    55 1
   61    57    56 1
   62    58    56 1
   63    59    58 1
   64    60    59 1
   65    61    60 1
   66    62    61 1
   67    63    61 1
   68    64    27 1
   69    64    46 1
   70    65     5 1
   71    65    10 1
   72    65    64 1
   73    65    14 1
   74    66    23 1
   75    67    23 1
   76    68    23 1
   77    69    22 1
   78    70    22 1
   79    71    22 1
   80    72    21 1
   81    73    21 1
   82    74    21 1
   83    75    20 1
   84    76    20 1
   85    77    20 1
   86    78    15 1
   87    79    15 1
   88    80    15 1
   89    81     8 1
   90    82     8 1
   91    83     8 1
   92    84     7 1
   93    85     7 1
   94    86     6 1
   95    87     6 1
   96    88     3 1
   97    89     3 1
   98    90     1 1
   99    91     1 1
  100    92    63 1
  101    93    63 1
  102    94    63 1
  103    95    62 1
  104    96    62 1
  105    97    62 1
  106    98    60 1
  107    99    60 1
  108   100    59 1
  109   101    59 1
  110   102    58 1
  111   103    58 1
  112   104    57 1
  113   105    57 1
  114   106    57 1
  115   107    55 1
  116   108    55 1
  117   109    54 1
  118   110    54 1
  119   111    53 1
  120   112    53 1
  121   113    19 1
  122   114    18 1
  123   115    17 1
  124   116     9 1
  125   117     2 1
  126   118    52 1
  127   119    52 1
  128   120    52 1
  129   121    51 1
  130   122    50 1
  131   123    50 1
  132   124    49 1
  133   125    49 1
  134   126    48 1
  135   127    48 1
  136   128    43 1
  137   129    43 1
  138   130    43 1
  139   131    39 1
  140   132    32 1
  141   133    31 1
  142   134    61 1
  143   135    56 1
  144   136    24 1
  145   137    24 1
  146   139   138 1
  147   140   139 1
  148   141   140 1
  149   142   140 1
  150   143   142 1
  151   144   138 1
  152   144   143 1
  153   145   144 1
  154   146   145 1
  155   147   146 1
  156   148   147 1
  157   149   148 1
  158   150   149 1
  159   151   150 1
  160   152   151 1
  161   153   152 1
  162   154   138 1
  163   155   138 1
  164   156   143 1
  165   157   147 1
  166   158   151 1
  167   160   159 1
  168   161   160 1
  169   162   161 1
  170   163   161 1
  171   164   163 1
  172   165   159 1
  173   165   164 1
  174   166   165 1
  175   167   166 1
  176   168   167 1
  177   169   168 1
  178   170   169 1
  179   171   170 1
  180   172   171 1
  181   173   172 1
  182   174   153 1
  183   174   173 1
  184   175   159 1
  185   176   159 1
  186   177   164 1
  187   178   168 1
  188   179   172 1
  189   180   179 1
  190   181   179 1
  191   182   179 1
  192   183   178 1
  193   184   178 1
  194   185   178 1
  195   186   177 1
  196   187   177 1
  197   188   177 1
  198   189   176 1
  199   190   176 1
  200   191   176 1
  201   192   175 1
  202   193   175 1
  203   194   175 1
  204   195   160 1
  205   196   160 1
  206   197   158 1
  207   198   158 1
  208   199   158 1
  209   200   157 1
  210   201   157 1
  211   202   157 1
  212   203   156 1
  213   204   156 1
  214   205   156 1
  215   206   155 1
  216   207   155 1
  217   208   155 1
  218   209   154 1
  219   210   154 1
  220   211   154 1
  221   212   141 1
  222   213   146 1
  223   214   145 1
  224   215   142 1
  225   216   142 1
  226   217   174 1
  227   218   173 1
  228   219   171 1
  229   220   170 1
  230   221   169 1
  231   222   140 1
  232   223   167 1
  233   224   166 1
  234   225   165 1
  235   226   163 1
  236   227   161 1
  237   228   139 1
  238   229   139 1
  239   230   153 1
  240   231   152 1
  241   232   150 1
  242   233   149 1
  243   234   148 1
  244   235   162 1
  245   65    153 1
  246   65    174 1
@<TRIPOS>SUBSTRUCTURE
      1 CLA               1 ****               0 ****  **** 
      2 LUT             138 ****               0 ****  **** 
