@<TRIPOS>MOLECULE
Cpptraj generated mol2 file.
  235   246     2     0     0
SMALL
USER_CHARGES


@<TRIPOS>ATOM
      1 CAA        78.6601   56.9334   34.5760 a2         1 CLA     -0.055900
      2 CAB        78.7259   61.3130   43.2929 c8         1 CLA     -0.148500
      3 CAC        71.3965   57.7733   42.7871 a2         1 CLA     -0.012600
      4 CAD        74.1281   54.8206   35.8954 ck         1 CLA      0.398800
      5 NA         77.4263   57.7302   37.8374 ns         1 CLA     -0.225500
      6 CBA        79.8499   56.3595   33.7813 a2         1 CLA     -0.135000
      7 CBB        79.9242   61.4313   43.8663 c0         1 CLA     -0.395200
      8 CBC        71.5513   56.3301   43.2226 a3         1 CLA     -0.037700
      9 CBD        75.5625   55.1045   35.5781 a1         1 CLA     -0.053900
     10 NB         77.3745   59.4152   40.3802 nm         1 CLA     -0.295700
     11 OBD        73.4393   53.9814   35.2566 o2         1 CLA     -0.494600
     12 CGA        79.9627   54.8420   33.4407 c4         1 CLA      0.827000
     13 CGD        76.3060   53.8533   35.7165 c4         1 CLA      0.655300
     14 ND         74.6133   57.1301   38.4786 nm         1 CLA     -0.291600
     15 CED        76.3049   51.6684   36.8680 a3         1 CLA      0.005400
     16 CHA        76.0330   56.1306   36.6400 cs         1 CLA     -0.123800
     17 CHB        79.2888   59.0084   38.8086 aa         1 CLA     -0.291900
     18 CHC        76.1169   59.8309   42.4412 aa         1 CLA     -0.090400
     19 CHD        72.6185   57.4603   39.9495 aa         1 CLA     -0.052000
     20 CMA        80.8094   56.5392   37.6383 a3         1 CLA     -0.230700
     21 CMB        80.7290   60.9692   40.7697 a3         1 CLA     -0.180800
     22 CMC        73.6906   59.3284   44.4284 a3         1 CLA     -0.134000
     23 CMD        71.1829   55.4700   37.8729 a3         1 CLA     -0.141100
     24 C1         80.4732   52.6686   34.4427 a2         1 CLA      0.023000
     25 C1A        77.2976   56.8022   36.7792 ac         1 CLA     -0.015100
     26 C1B        78.6590   59.6141   39.9462 cr         1 CLA      0.054700
     27 C1C        74.8666   59.2109   42.0913 cn         1 CLA     -0.005600
     28 C1D        73.2662   56.9018   38.8031 ap         1 CLA     -0.047300
     29 O1A        79.7587   54.3034   32.3476 o2         1 CLA     -0.610800
     30 O1D        77.1556   53.3854   34.9747 o2         1 CLA     -0.558200
     31 C2         81.2611   52.4432   35.6388 c8         1 CLA     -0.325100
     32 C2A        78.6254   56.5151   36.0821 a1         1 CLA      0.098600
     33 C2B        79.3351   60.4742   40.9647 cb         1 CLA      0.088500
     34 C2C        73.7579   58.9474   42.9956 cb         1 CLA      0.053700
     35 C2D        72.6127   56.0481   37.8254 cb         1 CLA      0.058900
     36 O2A        80.4244   54.1616   34.4682 o1         1 CLA     -0.437200
     37 O2D        75.8586   53.1129   36.8558 o1         1 CLA     -0.357600
     38 C3         81.9361   51.3492   35.9126 c5         1 CLA      0.031200
     39 C3A        79.6777   57.3070   36.9772 a1         1 CLA      0.166800
     40 C3B        78.4379   60.6294   42.0197 cb         1 CLA      0.035000
     41 C3C        72.7353   58.3329   42.2936 cb         1 CLA     -0.089900
     42 C3D        73.6820   55.6696   37.0010 cb         1 CLA     -0.035900
     43 C4         81.2855   50.1495   36.5509 a3         1 CLA     -0.053300
     44 C4A        78.7776   58.0739   37.9428 ac         1 CLA      0.001800
     45 C4B        77.2227   59.9085   41.6676 cn         1 CLA     -0.020900
     46 C4C        73.2880   58.1174   40.9787 cr         1 CLA     -0.044400
     47 C4D        74.8905   56.3706   37.4348 c6         1 CLA     -0.046000
     48 C5         83.3895   51.2885   35.5459 a2         1 CLA     -0.070400
     49 C6         84.2252   52.5004   35.9935 a2         1 CLA      0.043900
     50 C7         84.6432   52.2912   37.5109 a2         1 CLA     -0.150000
     51 C8         85.3734   53.6045   37.9666 a1         1 CLA      0.064200
     52 C9         86.8651   53.8120   37.4134 a3         1 CLA     -0.259300
     53 C10        85.2767   53.7998   39.5749 a2         1 CLA     -0.071900
     54 C11        83.8307   53.9807   39.9984 a2         1 CLA      0.014500
     55 C12        83.6719   54.4012   41.5463 a2         1 CLA     -0.112100
     56 C13        82.2076   54.7131   42.0629 a1         1 CLA      0.089200
     57 C14        81.5206   55.7490   41.1890 a3         1 CLA     -0.239100
     58 C15        82.3152   55.3139   43.4813 a2         1 CLA     -0.102200
     59 C16        82.9822   56.6530   43.7622 a2         1 CLA      0.023900
     60 C17        82.5960   57.2719   45.1539 a2         1 CLA     -0.105700
     61 C18        83.3393   58.4853   45.7660 a1         1 CLA      0.206800
     62 C19        82.6600   59.1289   46.9744 a3         1 CLA     -0.280100
     63 C20        84.8481   58.1437   46.0598 a3         1 CLA     -0.280100
     64 NC         74.5746   58.5973   40.9204 nx         1 CLA     -0.309200
     65 MG         76.0329   58.3460   39.2664 mg         1 CLA      0.895000
     66 HMD3       71.0396   54.6748   37.2064 dc         1 CLA      0.064300
     67 HMD2       70.9635   55.0941   38.8721 dc         1 CLA      0.064300
     68 HMD1       70.4709   56.2315   37.6042 dc         1 CLA      0.064300
     69 HMC3       74.3809   60.1296   44.6755 dc         1 CLA      0.052100
     70 HMC2       72.7179   59.6441   44.6203 dc         1 CLA      0.052100
     71 HMC1       73.8379   58.4810   45.0760 dc         1 CLA      0.052100
     72 HMB3       80.8778   61.8290   41.4581 dc         1 CLA      0.063600
     73 HMB2       81.4115   60.1404   40.9879 dc         1 CLA      0.063600
     74 HMB1       80.8569   61.2697   39.7578 dc         1 CLA      0.063600
     75 HMA3       81.4990   57.2364   38.1200 dc         1 CLA      0.058300
     76 HMA2       80.4706   55.7787   38.3246 dc         1 CLA      0.058300
     77 HMA1       81.4021   56.1693   36.7523 dc         1 CLA      0.058300
     78 HED3       76.0098   51.1660   37.7612 dc         1 CLA      0.079300
     79 HED2       75.8661   51.0517   36.0528 dc         1 CLA      0.079300
     80 HED1       77.4377   51.5677   36.8737 dc         1 CLA      0.079300
     81 HBC3       72.4575   56.3149   43.9015 dc         1 CLA      0.016300
     82 HBC2       70.7473   55.9905   43.8438 dc         1 CLA      0.016300
     83 HBC1       71.8296   55.6858   42.3819 dc         1 CLA      0.016300
     84 HBB2       80.0945   61.8183   44.9163 da         1 CLA      0.183000
     85 HBB1       80.8633   61.0837   43.4274 da         1 CLA      0.183000
     86 HBA2       79.8290   56.8263   32.7628 dc         1 CLA      0.029400
     87 HBA1       80.8240   56.6861   34.1425 dc         1 CLA      0.029400
     88 HAC2       71.0845   58.4103   43.5893 dc         1 CLA      0.029300
     89 HAC1       70.6392   57.7172   42.0548 dc         1 CLA      0.029300
     90 HAA2       77.7314   56.6354   34.1191 dc         1 CLA      0.028700
     91 HAA1       78.7539   58.0142   34.5383 dc         1 CLA      0.028700
     92 H203       85.1863   57.9917   44.9813 dc         1 CLA      0.065600
     93 H202       85.3659   58.9935   46.5436 dc         1 CLA      0.065600
     94 H201       84.9708   57.2800   46.6925 dc         1 CLA      0.065600
     95 H193       83.2066   59.9837   47.1994 dc         1 CLA      0.065600
     96 H192       81.6690   59.3993   46.6259 dc         1 CLA      0.065600
     97 H191       82.6163   58.4296   47.7294 dc         1 CLA      0.065600
     98 H172       81.5480   57.6467   45.1200 dc         1 CLA      0.027600
     99 H171       82.4582   56.4097   45.8268 dc         1 CLA      0.027600
    100 H162       84.0305   56.4441   43.7863 dc         1 CLA      0.002900
    101 H161       83.0745   57.3993   42.9517 dc         1 CLA      0.002900
    102 H152       81.3648   55.2942   43.8870 dc         1 CLA      0.029100
    103 H151       82.9804   54.6656   44.1017 dc         1 CLA      0.029100
    104 H143       81.1942   55.3408   40.2398 dc         1 CLA      0.063600
    105 H142       80.5977   56.0342   41.7158 dc         1 CLA      0.063600
    106 H141       82.1334   56.5910   40.9404 dc         1 CLA      0.063600
    107 H122       84.0064   53.6389   42.0989 dc         1 CLA      0.032500
    108 H121       84.3233   55.1806   41.8730 dc         1 CLA      0.032500
    109 H112       83.1773   54.5474   39.3563 dc         1 CLA      0.006600
    110 H111       83.5075   52.9089   39.9657 dc         1 CLA      0.006600
    111 H102       85.8080   53.0056   40.0775 dc         1 CLA      0.024100
    112 H101       85.8069   54.6904   39.8626 dc         1 CLA      0.024100
    113 HHD        71.5508   57.2436   39.9862 da         1 CLA      0.174300
    114 HHC        76.2965   60.1721   43.4774 da         1 CLA      0.136800
    115 HHB        80.3610   59.3025   38.7506 da         1 CLA      0.138300
    116 HBD        75.6440   55.6005   34.6152 dc         1 CLA      0.107700
    117 HAB        77.8314   61.5558   43.9120 da         1 CLA      0.155200
    118 H93        87.6015   52.9998   37.6632 dc         1 CLA      0.069500
    119 H92        86.9426   53.8137   36.3191 dc         1 CLA      0.069500
    120 H91        87.2433   54.8208   37.6366 dc         1 CLA      0.069500
    121 H8         84.8048   54.4474   37.5429 dc         1 CLA      0.029300
    122 H72        83.7959   52.0552   38.1358 dc         1 CLA      0.044400
    123 H71        85.4075   51.5608   37.5840 dc         1 CLA      0.044400
    124 H62        85.1134   52.4942   35.4122 dc         1 CLA      0.015600
    125 H61        83.6327   53.4021   35.9010 dc         1 CLA      0.015600
    126 H52        83.8719   50.3760   35.7655 dc         1 CLA      0.033200
    127 H51        83.4865   51.3092   34.4843 dc         1 CLA      0.033200
    128 H43        81.9780   49.5198   37.1533 dc         1 CLA      0.037000
    129 H42        80.5379   50.5615   37.2429 dc         1 CLA      0.037000
    130 H41        80.9377   49.4129   35.7842 dc         1 CLA      0.037000
    131 H3A        80.0949   58.1476   36.4503 dc         1 CLA      0.041100
    132 H2A        78.8153   55.4046   36.0665 dc         1 CLA      0.083100
    133 H2         81.3153   53.2875   36.3798 da         1 CLA      0.180900
    134 H18        83.3424   59.3281   45.0074 dc         1 CLA     -0.003900
    135 H13        81.6238   53.7881   42.0815 dc         1 CLA      0.019700
    136 H12        79.4991   52.2045   34.5077 dc         1 CLA      0.120400
    137 H11        80.9020   52.2415   33.6474 dc         1 CLA      0.120400
    138 C1         67.8082   60.0075   50.2601 Z1         2 LUT      0.509236
    139 C2         66.4486   60.0430   51.0407 Z2         2 LUT     -0.434695
    140 C3         65.6498   61.3648   51.2344 Z3         2 LUT      0.437453
    141 O3         65.3599   61.7441   52.6012 S1         2 LUT     -0.547129
    142 C4         66.3247   62.4638   50.4302 Z4         2 LUT     -0.468603
    143 C5         66.8574   62.0271   49.0999 Z5         2 LUT      0.279246
    144 C6         67.6556   60.9028   49.0027 Z6         2 LUT     -0.305473
    145 C7         68.2287   60.2989   47.7303 Z7         2 LUT      0.069402
    146 C8         69.0111   60.9946   46.9095 Z8         2 LUT     -0.191631
    147 C9         69.3053   60.7680   45.5382 Z9         2 LUT      0.196698
    148 C10        70.2826   61.6138   45.0050 Y1         2 LUT     -0.208611
    149 C11        70.9134   61.6299   43.7597 Y2         2 LUT      0.030784
    150 C12        72.0556   62.3799   43.5220 Y3         2 LUT     -0.220316
    151 C13        72.9592   62.3298   42.3028 Y4         2 LUT      0.215937
    152 C14        74.0314   63.2518   42.2978 Y5         2 LUT     -0.185793
    153 C15        75.1113   63.3264   41.2156 Y6         2 LUT     -0.057835
    154 C16        68.1285   58.5666   50.1406 Y7         2 LUT     -0.405615
    155 C17        68.8546   60.6669   51.1635 Y7         2 LUT     -0.405615
    156 C18        66.1273   62.5683   47.9577 Y9         2 LUT     -0.369639
    157 C19        68.6073   59.5934   44.7577 W1         2 LUT     -0.333362
    158 C20        72.4096   61.4735   41.1041 W2         2 LUT     -0.323439
    159 C21        87.0145   63.5770   35.3177 Z1         2 LUT      0.406104
    160 C22        87.8068   63.2472   34.0595 Z2         2 LUT     -0.404965
    161 C23        87.9225   64.4172   33.1080 Z3         2 LUT      0.391255
    162 O23        88.6511   64.0386   31.9591 S1         2 LUT     -0.528210
    163 C24        86.6256   65.2707   32.9057 W6         2 LUT     -0.258361
    164 C25        85.5265   65.0975   33.7067 Z5         2 LUT      0.133546
    165 C26        85.5510   64.1282   34.9081 W8         2 LUT     -0.147008
    166 C27        84.8233   64.6917   36.1380 Z7         2 LUT      0.023843
    167 C28        83.5498   64.4421   36.4806 Z8         2 LUT     -0.216987
    168 C29        82.7737   65.0367   37.5900 Z9         2 LUT      0.206524
    169 C30        81.5630   64.5159   37.8839 Y1         2 LUT     -0.215556
    170 C31        80.6844   64.7482   38.9863 Y2         2 LUT      0.025142
    171 C32        79.4678   64.1735   39.2182 Y3         2 LUT     -0.212209
    172 C33        78.5279   64.4716   40.3477 Y4         2 LUT      0.240937
    173 C34        77.3163   63.8224   40.3756 Y5         2 LUT     -0.218862
    174 C35        76.4031   63.8018   41.3661 Y6         2 LUT     -0.023547
    175 C36        87.9148   64.6226   36.0799 Y7         2 LUT     -0.393485
    176 C37        87.0733   62.3721   36.3208 Y7         2 LUT     -0.393485
    177 C38        84.2869   65.9470   33.4329 Y9         2 LUT     -0.387526
    178 C39        83.3026   66.2657   38.3026 W1         2 LUT     -0.322618
    179 C40        79.1094   65.3436   41.3966 W2         2 LUT     -0.358472
    180 H403       78.6893   65.1817   42.3842 R7         2 LUT      0.097720
    181 H402       80.1668   65.2962   41.5326 R7         2 LUT      0.097720
    182 H401       78.8632   66.4056   41.2553 R7         2 LUT      0.097720
    183 H393       84.2794   66.0536   38.5870 R4         2 LUT      0.082505
    184 H392       83.2508   67.0919   37.6330 R4         2 LUT      0.082505
    185 H391       82.7837   66.5092   39.2457 R4         2 LUT      0.082505
    186 H383       83.3861   65.3823   33.5003 R1         2 LUT      0.104030
    187 H382       84.2261   66.6946   34.2473 R1         2 LUT      0.104030
    188 H381       84.4123   66.4727   32.4533 R1         2 LUT      0.104030
    189 H373       86.3645   61.6571   36.0980 T4         2 LUT      0.089537
    190 H372       88.1472   61.9039   36.4044 T4         2 LUT      0.089537
    191 H371       86.8144   62.7359   37.3003 T4         2 LUT      0.089537
    192 H363       88.9755   64.2848   36.1226 T4         2 LUT      0.089537
    193 H362       87.9164   65.6150   35.5498 T4         2 LUT      0.089537
    194 H361       87.5379   64.8138   37.0551 T4         2 LUT      0.089537
    195 H222       88.7654   62.9670   34.4230 U2         2 LUT      0.127376
    196 H221       87.2985   62.4635   33.5436 U2         2 LUT      0.127376
    197 H203       71.6914   60.6375   41.2111 R7         2 LUT      0.087068
    198 H202       71.9929   62.1115   40.3321 R7         2 LUT      0.087068
    199 H201       73.2795   60.8756   40.7081 R7         2 LUT      0.087068
    200 H193       68.2162   60.0367   43.8321 R4         2 LUT      0.089716
    201 H192       69.2046   58.7376   44.6333 R4         2 LUT      0.089716
    202 H191       67.7691   59.0741   45.2821 R4         2 LUT      0.089716
    203 H183       66.2385   61.9790   47.1048 R1         2 LUT      0.094572
    204 H182       65.0459   62.8626   48.1156 R1         2 LUT      0.094572
    205 H181       66.6615   63.5212   47.7115 R1         2 LUT      0.094572
    206 H173       69.9051   60.3623   50.8473 T4         2 LUT      0.093752
    207 H172       68.7654   61.7703   51.0123 T4         2 LUT      0.093752
    208 H171       68.8523   60.3292   52.1378 T4         2 LUT      0.093752
    209 H163       68.2600   58.0533   51.0837 T4         2 LUT      0.093752
    210 H162       67.3547   58.0684   49.5796 T4         2 LUT      0.093752
    211 H161       69.0757   58.3676   49.5965 T4         2 LUT      0.093752
    212 HO3        66.1510   62.0077   53.1716 Q1         2 LUT      0.300121
    213 H8         69.4194   61.9417   47.1700 U7         2 LUT      0.080784
    214 H7         67.6160   59.3478   47.5642 U6         2 LUT      0.042190
    215 H42        65.5415   63.2515   50.3053 U5         2 LUT      0.145166
    216 H41        67.0304   63.1226   50.9465 U5         2 LUT      0.145166
    217 H35        76.6945   64.2507   42.3024 T3         2 LUT      0.077919
    218 H34        77.1129   63.0559   39.5765 T2         2 LUT      0.073626
    219 H32        79.0826   63.5048   38.4345 T1         2 LUT      0.092510
    220 H31        81.0430   65.4995   39.7717 U9         2 LUT      0.070048
    221 H30        81.1571   63.7481   37.2047 U8         2 LUT      0.085442
    222 H3         64.6268   61.1313   50.9084 U3         2 LUT     -0.031596
    223 H28        83.1947   63.5554   36.0195 U7         2 LUT      0.084728
    224 H27        85.2748   65.4654   36.7320 U6         2 LUT      0.087291
    225 H26        85.0968   63.2265   34.4776 Q6         2 LUT      0.075325
    226 H24        86.7242   66.0186   32.0527 Q5         2 LUT      0.094482
    227 H23        88.6170   65.0964   33.6136 U3         2 LUT     -0.024869
    228 H22        65.7680   59.4950   50.4613 U2         2 LUT      0.127376
    229 H21        66.5727   59.6135   52.0427 U2         2 LUT      0.127376
    230 H15        74.8579   62.9935   40.2571 T3         2 LUT      0.093200
    231 H14        74.3422   63.8365   43.1852 T2         2 LUT      0.068865
    232 H12        72.4597   62.9855   44.3501 T1         2 LUT      0.095507
    233 H11        70.5540   60.8689   43.0736 U9         2 LUT      0.068930
    234 H10        70.6095   62.6062   45.4960 U8         2 LUT      0.083911
    235 H1         88.1046   63.5803   31.3640 Q1         2 LUT      0.297311
@<TRIPOS>BOND
    1     6     1 1
    2     7     2 1
    3     8     3 1
    4     9     4 1
    5    11     4 1
    6    12     6 1
    7    13     9 1
    8    16     9 1
    9    25     5 1
   10    25    16 1
   11    26    10 1
   12    26    17 1
   13    27    18 1
   14    28    14 1
   15    28    19 1
   16    29    12 1
   17    30    13 1
   18    31    24 1
   19    32     1 1
   20    32    25 1
   21    33    21 1
   22    33    26 1
   23    34    22 1
   24    34    27 1
   25    35    23 1
   26    35    28 1
   27    36    12 1
   28    36    24 1
   29    37    13 1
   30    37    15 1
   31    38    31 1
   32    39    20 1
   33    39    32 1
   34    40     2 1
   35    40    33 1
   36    41     3 1
   37    41    34 1
   38    42     4 1
   39    42    35 1
   40    43    38 1
   41    44     5 1
   42    44    17 1
   43    44    39 1
   44    45    10 1
   45    45    18 1
   46    45    40 1
   47    46    19 1
   48    46    41 1
   49    47    14 1
   50    47    16 1
   51    47    42 1
   52    48    38 1
   53    49    48 1
   54    50    49 1
   55    51    50 1
   56    52    51 1
   57    53    51 1
   58    54    53 1
   59    55    54 1
   60    56    55 1
   61    57    56 1
   62    58    56 1
   63    59    58 1
   64    60    59 1
   65    61    60 1
   66    62    61 1
   67    63    61 1
   68    64    27 1
   69    64    46 1
   70    65     5 1
   71    65    10 1
   72    65    64 1
   73    65    14 1
   74    66    23 1
   75    67    23 1
   76    68    23 1
   77    69    22 1
   78    70    22 1
   79    71    22 1
   80    72    21 1
   81    73    21 1
   82    74    21 1
   83    75    20 1
   84    76    20 1
   85    77    20 1
   86    78    15 1
   87    79    15 1
   88    80    15 1
   89    81     8 1
   90    82     8 1
   91    83     8 1
   92    84     7 1
   93    85     7 1
   94    86     6 1
   95    87     6 1
   96    88     3 1
   97    89     3 1
   98    90     1 1
   99    91     1 1
  100    92    63 1
  101    93    63 1
  102    94    63 1
  103    95    62 1
  104    96    62 1
  105    97    62 1
  106    98    60 1
  107    99    60 1
  108   100    59 1
  109   101    59 1
  110   102    58 1
  111   103    58 1
  112   104    57 1
  113   105    57 1
  114   106    57 1
  115   107    55 1
  116   108    55 1
  117   109    54 1
  118   110    54 1
  119   111    53 1
  120   112    53 1
  121   113    19 1
  122   114    18 1
  123   115    17 1
  124   116     9 1
  125   117     2 1
  126   118    52 1
  127   119    52 1
  128   120    52 1
  129   121    51 1
  130   122    50 1
  131   123    50 1
  132   124    49 1
  133   125    49 1
  134   126    48 1
  135   127    48 1
  136   128    43 1
  137   129    43 1
  138   130    43 1
  139   131    39 1
  140   132    32 1
  141   133    31 1
  142   134    61 1
  143   135    56 1
  144   136    24 1
  145   137    24 1
  146   139   138 1
  147   140   139 1
  148   141   140 1
  149   142   140 1
  150   143   142 1
  151   144   138 1
  152   144   143 1
  153   145   144 1
  154   146   145 1
  155   147   146 1
  156   148   147 1
  157   149   148 1
  158   150   149 1
  159   151   150 1
  160   152   151 1
  161   153   152 1
  162   154   138 1
  163   155   138 1
  164   156   143 1
  165   157   147 1
  166   158   151 1
  167   160   159 1
  168   161   160 1
  169   162   161 1
  170   163   161 1
  171   164   163 1
  172   165   159 1
  173   165   164 1
  174   166   165 1
  175   167   166 1
  176   168   167 1
  177   169   168 1
  178   170   169 1
  179   171   170 1
  180   172   171 1
  181   173   172 1
  182   174   153 1
  183   174   173 1
  184   175   159 1
  185   176   159 1
  186   177   164 1
  187   178   168 1
  188   179   172 1
  189   180   179 1
  190   181   179 1
  191   182   179 1
  192   183   178 1
  193   184   178 1
  194   185   178 1
  195   186   177 1
  196   187   177 1
  197   188   177 1
  198   189   176 1
  199   190   176 1
  200   191   176 1
  201   192   175 1
  202   193   175 1
  203   194   175 1
  204   195   160 1
  205   196   160 1
  206   197   158 1
  207   198   158 1
  208   199   158 1
  209   200   157 1
  210   201   157 1
  211   202   157 1
  212   203   156 1
  213   204   156 1
  214   205   156 1
  215   206   155 1
  216   207   155 1
  217   208   155 1
  218   209   154 1
  219   210   154 1
  220   211   154 1
  221   212   141 1
  222   213   146 1
  223   214   145 1
  224   215   142 1
  225   216   142 1
  226   217   174 1
  227   218   173 1
  228   219   171 1
  229   220   170 1
  230   221   169 1
  231   222   140 1
  232   223   167 1
  233   224   166 1
  234   225   165 1
  235   226   163 1
  236   227   161 1
  237   228   139 1
  238   229   139 1
  239   230   153 1
  240   231   152 1
  241   232   150 1
  242   233   149 1
  243   234   148 1
  244   235   162 1
  245   65    153 1
  246   65    174 1
@<TRIPOS>SUBSTRUCTURE
      1 CLA               1 ****               0 ****  **** 
      2 LUT             138 ****               0 ****  **** 
