@<TRIPOS>MOLECULE
Cpptraj generated mol2 file.
  235   246     2     0     0
SMALL
USER_CHARGES


@<TRIPOS>ATOM
      1 CAA        80.0974   58.5159   34.2577 a2         1 CLA     -0.055900
      2 CAB        80.2188   62.1551   43.3660 c8         1 CLA     -0.148500
      3 CAC        73.4169   58.0407   42.8253 a2         1 CLA     -0.012600
      4 CAD        76.1484   55.6168   35.6343 ck         1 CLA      0.398800
      5 NA         79.1031   59.0508   37.6107 ns         1 CLA     -0.225500
      6 CBA        81.3641   58.3625   33.3534 a2         1 CLA     -0.135000
      7 CBB        81.2380   61.9186   44.2502 c0         1 CLA     -0.395200
      8 CBC        73.6611   56.5792   42.7807 a3         1 CLA     -0.037700
      9 CBD        77.5777   56.2432   35.3575 a1         1 CLA     -0.053900
     10 NB         79.0346   60.3924   40.2920 nm         1 CLA     -0.295700
     11 OBD        75.6443   54.6558   35.0494 o2         1 CLA     -0.494600
     12 CGA        81.9408   56.9367   33.0684 c4         1 CLA      0.827000
     13 CGD        78.7436   55.2280   35.2191 c4         1 CLA      0.655300
     14 ND         76.3267   58.0120   38.2813 nm         1 CLA     -0.291600
     15 CED        80.2601   53.7701   36.5337 a3         1 CLA      0.005400
     16 CHA        77.8641   57.3479   36.4298 cs         1 CLA     -0.123800
     17 CHB        80.9190   60.4916   38.5520 aa         1 CLA     -0.291900
     18 CHC        77.6946   60.6606   42.2969 aa         1 CLA     -0.090400
     19 CHD        74.4255   58.0589   39.8053 aa         1 CLA     -0.052000
     20 CMA        82.4720   58.3134   37.1340 a3         1 CLA     -0.230700
     21 CMB        82.3378   61.9455   40.9603 a3         1 CLA     -0.180800
     22 CMC        75.2889   60.1701   44.3546 a3         1 CLA     -0.134000
     23 CMD        73.2249   55.9332   37.5652 a3         1 CLA     -0.141100
     24 C1         83.1971   55.1394   33.8015 a2         1 CLA      0.023000
     25 C1A        79.0160   58.1234   36.6251 ac         1 CLA     -0.015100
     26 C1B        80.3001   60.8616   39.8463 cr         1 CLA      0.054700
     27 C1C        76.5388   59.9231   42.0195 cn         1 CLA     -0.005600
     28 C1D        75.0589   57.5742   38.6042 ap         1 CLA     -0.047300
     29 O1A        81.6791   56.3590   32.0272 o2         1 CLA     -0.610800
     30 O1D        79.6937   55.2836   34.3699 o2         1 CLA     -0.558200
     31 C2         83.5690   54.5106   35.1645 c8         1 CLA     -0.325100
     32 C2A        80.2491   58.1152   35.7649 a1         1 CLA      0.098600
     33 C2B        80.9374   61.4202   40.9315 cb         1 CLA      0.088500
     34 C2C        75.4321   59.6946   42.9336 cb         1 CLA      0.053700
     35 C2D        74.5765   56.6043   37.5922 cb         1 CLA      0.058900
     36 O2A        82.7883   56.4846   34.0653 o1         1 CLA     -0.437200
     37 O2D        78.9083   54.4589   36.3981 o1         1 CLA     -0.357600
     38 C3         84.3720   53.4088   35.2669 c5         1 CLA      0.031200
     39 C3A        81.2466   59.0570   36.4838 a1         1 CLA      0.166800
     40 C3B        80.0343   61.4839   42.0137 cb         1 CLA      0.035000
     41 C3C        74.5172   58.8317   42.2168 cb         1 CLA     -0.089900
     42 C3D        75.7102   56.4166   36.7390 cb         1 CLA     -0.035900
     43 C4         83.8559   51.9252   35.2970 a3         1 CLA     -0.053300
     44 C4A        80.3252   59.6990   37.5861 ac         1 CLA      0.001800
     45 C4B        78.8239   60.8925   41.5449 cn         1 CLA     -0.020900
     46 C4C        75.0108   58.7176   40.8670 cr         1 CLA     -0.044400
     47 C4D        76.7125   57.2846   37.2238 c6         1 CLA     -0.046000
     48 C5         85.8701   53.6374   35.3440 a2         1 CLA     -0.070400
     49 C6         86.3703   54.8699   36.2252 a2         1 CLA      0.043900
     50 C7         87.8372   54.6212   36.4956 a2         1 CLA     -0.150000
     51 C8         88.6035   55.6568   37.3358 a1         1 CLA      0.064200
     52 C9         90.1936   55.5242   37.2041 a3         1 CLA     -0.259300
     53 C10        88.0870   55.6878   38.7571 a2         1 CLA     -0.071900
     54 C11        88.6016   56.9102   39.4555 a2         1 CLA      0.014500
     55 C12        87.7607   57.1422   40.7152 a2         1 CLA     -0.112100
     56 C13        88.2504   58.3247   41.6245 a1         1 CLA      0.089200
     57 C14        89.6353   57.9154   42.3571 a3         1 CLA     -0.239100
     58 C15        87.2155   58.6123   42.7384 a2         1 CLA     -0.102200
     59 C16        87.4332   59.4721   43.8895 a2         1 CLA      0.023900
     60 C17        86.1376   59.7218   44.6747 a2         1 CLA     -0.105700
     61 C18        85.6928   58.5618   45.6683 a1         1 CLA      0.206800
     62 C19        86.7939   58.1824   46.6995 a3         1 CLA     -0.280100
     63 C20        84.4891   59.0838   46.5464 a3         1 CLA     -0.280100
     64 NC         76.2800   59.2810   40.7821 nx         1 CLA     -0.309200
     65 MG         77.5968   59.3715   39.1205 mg         1 CLA      0.895000
     66 HMD3       73.3727   55.2277   36.7245 dc         1 CLA      0.064300
     67 HMD2       73.0187   55.3863   38.4868 dc         1 CLA      0.064300
     68 HMD1       72.4506   56.6063   37.2861 dc         1 CLA      0.064300
     69 HMC3       75.9793   60.9311   44.5713 dc         1 CLA      0.052100
     70 HMC2       74.3063   60.4383   44.6975 dc         1 CLA      0.052100
     71 HMC1       75.6488   59.3837   44.9465 dc         1 CLA      0.052100
     72 HMB3       82.6002   62.3055   41.9464 dc         1 CLA      0.063600
     73 HMB2       82.9946   61.1618   40.6945 dc         1 CLA      0.063600
     74 HMB1       82.4471   62.8009   40.3011 dc         1 CLA      0.063600
     75 HMA3       83.0882   57.7844   36.4094 dc         1 CLA      0.058300
     76 HMA2       83.1900   58.9797   37.6205 dc         1 CLA      0.058300
     77 HMA1       82.0444   57.6019   37.8023 dc         1 CLA      0.058300
     78 HED3       80.1477   53.2502   37.4809 dc         1 CLA      0.079300
     79 HED2       80.4344   53.0394   35.7853 dc         1 CLA      0.079300
     80 HED1       81.0753   54.5298   36.4494 dc         1 CLA      0.079300
     81 HBC3       73.8027   56.1481   41.7533 dc         1 CLA      0.016300
     82 HBC2       74.5955   56.3746   43.3459 dc         1 CLA      0.016300
     83 HBC1       72.7950   56.0847   43.2027 dc         1 CLA      0.016300
     84 HBB2       81.2669   62.3780   45.2602 da         1 CLA      0.183000
     85 HBB1       82.1258   61.2962   44.0176 da         1 CLA      0.183000
     86 HBA2       81.0899   58.7451   32.3577 dc         1 CLA      0.029400
     87 HBA1       82.2094   58.9107   33.7691 dc         1 CLA      0.029400
     88 HAC2       73.2687   58.3088   43.8995 dc         1 CLA      0.029300
     89 HAC1       72.5008   58.1906   42.2473 dc         1 CLA      0.029300
     90 HAA2       79.4041   57.7163   33.8661 dc         1 CLA      0.028700
     91 HAA1       79.5713   59.4777   34.1394 dc         1 CLA      0.028700
     92 H203       83.6239   59.2751   45.9172 dc         1 CLA      0.065600
     93 H202       84.2383   58.2995   47.2870 dc         1 CLA      0.065600
     94 H201       84.7639   59.9927   47.0730 dc         1 CLA      0.065600
     95 H193       87.7282   57.8342   46.2741 dc         1 CLA      0.065600
     96 H192       86.9184   59.0036   47.4467 dc         1 CLA      0.065600
     97 H191       86.4331   57.3141   47.3061 dc         1 CLA      0.065600
     98 H172       86.2688   60.5957   45.2884 dc         1 CLA      0.027600
     99 H171       85.3585   59.8495   43.9941 dc         1 CLA      0.027600
    100 H162       88.2785   59.0704   44.4890 dc         1 CLA      0.002900
    101 H161       87.6527   60.4416   43.4011 dc         1 CLA      0.002900
    102 H152       86.3335   59.0650   42.2493 dc         1 CLA      0.029100
    103 H151       86.9376   57.6364   43.1778 dc         1 CLA      0.029100
    104 H143       89.3377   57.0114   42.9614 dc         1 CLA      0.063600
    105 H142       90.2488   57.5356   41.5360 dc         1 CLA      0.063600
    106 H141       90.1876   58.6361   43.0091 dc         1 CLA      0.063600
    107 H122       86.7016   57.3504   40.4414 dc         1 CLA      0.032500
    108 H121       87.7820   56.2686   41.3403 dc         1 CLA      0.032500
    109 H112       89.6207   56.7156   39.6560 dc         1 CLA      0.006600
    110 H111       88.5205   57.7941   38.9057 dc         1 CLA      0.006600
    111 H102       87.0041   55.7290   38.7088 dc         1 CLA      0.024100
    112 H101       88.4563   54.7704   39.1256 dc         1 CLA      0.024100
    113 HHD        73.3494   57.6683   39.8861 da         1 CLA      0.174300
    114 HHC        77.8057   61.0470   43.2874 da         1 CLA      0.136800
    115 HHB        81.9888   60.8179   38.5099 da         1 CLA      0.138300
    116 HBD        77.5004   56.8027   34.4211 dc         1 CLA      0.107700
    117 HAB        79.3266   62.7081   43.6867 da         1 CLA      0.155200
    118 H93        90.5498   54.7037   37.7589 dc         1 CLA      0.069500
    119 H92        90.6356   55.4968   36.2161 dc         1 CLA      0.069500
    120 H91        90.7230   56.3627   37.6568 dc         1 CLA      0.069500
    121 H8         88.3187   56.6550   36.9929 dc         1 CLA      0.029300
    122 H72        88.0750   53.6541   36.9565 dc         1 CLA      0.044400
    123 H71        88.1432   54.6849   35.4243 dc         1 CLA      0.044400
    124 H62        86.2564   55.7860   35.6991 dc         1 CLA      0.015600
    125 H61        85.7643   54.9088   37.1151 dc         1 CLA      0.015600
    126 H52        86.2983   52.7254   35.7493 dc         1 CLA      0.033200
    127 H51        86.3177   53.8867   34.3612 dc         1 CLA      0.033200
    128 H43        84.3504   51.3598   34.5374 dc         1 CLA      0.037000
    129 H42        84.1605   51.5141   36.2594 dc         1 CLA      0.037000
    130 H41        82.7825   51.9785   35.2398 dc         1 CLA      0.037000
    131 H3A        81.7726   59.7538   35.7433 dc         1 CLA      0.041100
    132 H2A        80.7242   57.1004   35.8423 dc         1 CLA      0.083100
    133 H2         83.3500   54.9868   36.0891 da         1 CLA      0.180900
    134 H18        85.5067   57.7879   44.9861 dc         1 CLA     -0.003900
    135 H13        88.3475   59.2256   40.9837 dc         1 CLA      0.019700
    136 H12        82.4108   54.5027   33.2952 dc         1 CLA      0.120400
    137 H11        83.9870   55.0875   33.0084 dc         1 CLA      0.120400
    138 C1         70.4762   61.5902   49.7038 Z1         2 LUT      0.509236
    139 C2         69.2381   61.3282   50.5155 Z2         2 LUT     -0.434695
    140 C3         68.3352   62.4703   50.9929 Z3         2 LUT      0.437453
    141 O3         68.7965   62.8677   52.2656 S1         2 LUT     -0.547129
    142 C4         68.2421   63.5791   49.9224 Z4         2 LUT     -0.468603
    143 C5         68.9873   63.2985   48.5624 Z5         2 LUT      0.279246
    144 C6         70.0101   62.3816   48.4935 Z6         2 LUT     -0.305473
    145 C7         70.4407   61.9132   47.1922 Z7         2 LUT      0.069402
    146 C8         71.4971   62.4110   46.4936 Z8         2 LUT     -0.191631
    147 C9         72.0663   62.1206   45.2263 Z9         2 LUT      0.196698
    148 C10        73.0708   62.9443   44.7239 Y1         2 LUT     -0.208611
    149 C11        73.6508   62.8684   43.4658 Y2         2 LUT      0.030784
    150 C12        74.7929   63.6468   43.2130 Y3         2 LUT     -0.220316
    151 C13        75.6308   63.6090   42.0530 Y4         2 LUT      0.215937
    152 C14        76.8113   64.2423   42.1368 Y5         2 LUT     -0.185793
    153 C15        77.9509   64.3348   41.1892 Y6         2 LUT     -0.057835
    154 C16        71.2356   60.2470   49.4559 Y7         2 LUT     -0.405615
    155 C17        71.3623   62.6223   50.4807 Y7         2 LUT     -0.405615
    156 C18        68.4609   64.1938   47.4718 Y9         2 LUT     -0.369639
    157 C19        71.3604   61.1714   44.3321 W1         2 LUT     -0.333362
    158 C20        75.0529   63.0567   40.8254 W2         2 LUT     -0.323439
    159 C21        89.3260   65.2984   34.6432 Z1         2 LUT      0.406104
    160 C22        90.0353   64.8601   33.2883 Z2         2 LUT     -0.404965
    161 C23        89.8855   65.8936   32.2416 Z3         2 LUT      0.391255
    162 O23        90.5697   65.5538   31.0040 S1         2 LUT     -0.528210
    163 C24        88.5397   66.5190   32.1037 W6         2 LUT     -0.258361
    164 C25        87.5617   66.4803   33.0232 Z5         2 LUT      0.133546
    165 C26        87.8019   65.7989   34.4032 W8         2 LUT     -0.147008
    166 C27        87.1049   66.5945   35.5917 Z7         2 LUT      0.023843
    167 C28        85.8471   66.3629   36.0806 Z8         2 LUT     -0.216987
    168 C29        85.2980   66.8635   37.3461 Z9         2 LUT      0.206524
    169 C30        84.0628   66.3914   37.7036 Y1         2 LUT     -0.215556
    170 C31        83.3203   66.5004   38.9456 Y2         2 LUT      0.025142
    171 C32        82.1773   65.7942   39.2469 Y3         2 LUT     -0.212209
    172 C33        81.4044   65.8022   40.4910 Y4         2 LUT      0.240937
    173 C34        80.2333   65.0715   40.4534 Y5         2 LUT     -0.218862
    174 C35        79.1498   64.9830   41.4830 Y6         2 LUT     -0.023547
    175 C36        90.2827   66.2835   35.3371 Y7         2 LUT     -0.393485
    176 C37        89.3032   64.0990   35.5599 Y7         2 LUT     -0.393485
    177 C38        86.1477   66.8596   32.6970 Y9         2 LUT     -0.387526
    178 C39        86.1192   67.8339   38.1666 W1         2 LUT     -0.322618
    179 C40        81.7597   66.7320   41.5773 W2         2 LUT     -0.358472
    180 H403       81.2146   66.5954   42.5477 R7         2 LUT      0.097720
    181 H402       82.7813   66.5989   41.8636 R7         2 LUT      0.097720
    182 H401       81.6267   67.7823   41.2351 R7         2 LUT      0.097720
    183 H393       86.7684   68.3838   37.4922 R4         2 LUT      0.082505
    184 H392       85.4427   68.5483   38.6466 R4         2 LUT      0.082505
    185 H391       86.7094   67.2920   38.9330 R4         2 LUT      0.082505
    186 H383       85.5156   67.2446   33.4955 R1         2 LUT      0.104030
    187 H382       86.2238   67.6334   31.9555 R1         2 LUT      0.104030
    188 H381       85.5772   66.0442   32.2619 R1         2 LUT      0.104030
    189 H373       90.2266   63.7820   35.9639 T4         2 LUT      0.089537
    190 H372       88.7161   64.1091   36.4454 T4         2 LUT      0.089537
    191 H371       88.9031   63.2214   35.0276 T4         2 LUT      0.089537
    192 H363       90.0236   66.3674   36.4002 T4         2 LUT      0.089537
    193 H362       91.2615   65.8504   35.3882 T4         2 LUT      0.089537
    194 H361       90.4473   67.2931   34.9334 T4         2 LUT      0.089537
    195 H222       91.1128   64.4891   33.2493 U2         2 LUT      0.127376
    196 H221       89.5624   63.9508   32.8733 U2         2 LUT      0.127376
    197 H203       75.3195   63.7382   40.0296 R7         2 LUT      0.087068
    198 H202       75.5103   62.1659   40.5953 R7         2 LUT      0.087068
    199 H201       73.9585   62.8793   40.8007 R7         2 LUT      0.087068
    200 H193       71.7819   60.1831   44.0975 R4         2 LUT      0.089716
    201 H192       70.3596   60.9352   44.6043 R4         2 LUT      0.089716
    202 H191       71.2331   61.7059   43.3975 R4         2 LUT      0.089716
    203 H183       69.0151   65.1587   47.4275 R1         2 LUT      0.094572
    204 H182       68.5859   63.6885   46.5686 R1         2 LUT      0.094572
    205 H181       67.4170   64.5479   47.6516 R1         2 LUT      0.094572
    206 H173       72.0921   63.0689   49.8400 T4         2 LUT      0.093752
    207 H172       70.8913   63.3687   51.0872 T4         2 LUT      0.093752
    208 H171       71.9133   62.0601   51.2342 T4         2 LUT      0.093752
    209 H163       72.1771   60.3612   48.8534 T4         2 LUT      0.093752
    210 H162       71.4822   59.7396   50.3369 T4         2 LUT      0.093752
    211 H161       70.5242   59.5787   48.9029 T4         2 LUT      0.093752
    212 HO3        68.5590   62.2743   53.0158 Q1         2 LUT      0.300121
    213 H8         72.0051   63.1886   47.0286 U7         2 LUT      0.080784
    214 H7         69.9465   61.1647   46.6277 U6         2 LUT      0.042190
    215 H42        67.1784   63.5368   49.7845 U5         2 LUT      0.145166
    216 H41        68.6350   64.4496   50.4313 U5         2 LUT      0.145166
    217 H35        79.1235   65.4632   42.4124 T3         2 LUT      0.077919
    218 H34        79.9853   64.3929   39.6173 T2         2 LUT      0.073626
    219 H32        81.7519   65.1683   38.5244 T1         2 LUT      0.092510
    220 H31        83.7896   67.1453   39.6791 U9         2 LUT      0.070048
    221 H30        83.6435   65.7036   37.0037 U8         2 LUT      0.085442
    222 H3         67.3083   62.1158   50.8650 U3         2 LUT     -0.031596
    223 H28        85.2730   65.5790   35.5725 U7         2 LUT      0.084728
    224 H27        87.7065   67.2900   36.1637 U6         2 LUT      0.087291
    225 H26        87.2518   64.8270   34.4298 Q6         2 LUT      0.075325
    226 H24        88.3094   67.0078   31.1249 Q5         2 LUT      0.094482
    227 H23        90.3832   66.7186   32.7359 U3         2 LUT     -0.024869
    228 H22        68.5666   60.6218   49.9543 U2         2 LUT      0.127376
    229 H21        69.4339   60.7245   51.3851 U2         2 LUT      0.127376
    230 H15        77.8520   63.6845   40.2670 T3         2 LUT      0.093200
    231 H14        77.1211   64.6596   43.0744 T2         2 LUT      0.068865
    232 H12        75.2112   64.2504   44.0083 T1         2 LUT      0.095507
    233 H11        73.3441   62.1499   42.7276 U9         2 LUT      0.068930
    234 H10        73.4134   63.7339   45.3527 U8         2 LUT      0.083911
    235 H1         90.1319   64.9146   30.4254 Q1         2 LUT      0.297311
@<TRIPOS>BOND
    1     6     1 1
    2     7     2 1
    3     8     3 1
    4     9     4 1
    5    11     4 1
    6    12     6 1
    7    13     9 1
    8    16     9 1
    9    25     5 1
   10    25    16 1
   11    26    10 1
   12    26    17 1
   13    27    18 1
   14    28    14 1
   15    28    19 1
   16    29    12 1
   17    30    13 1
   18    31    24 1
   19    32     1 1
   20    32    25 1
   21    33    21 1
   22    33    26 1
   23    34    22 1
   24    34    27 1
   25    35    23 1
   26    35    28 1
   27    36    12 1
   28    36    24 1
   29    37    13 1
   30    37    15 1
   31    38    31 1
   32    39    20 1
   33    39    32 1
   34    40     2 1
   35    40    33 1
   36    41     3 1
   37    41    34 1
   38    42     4 1
   39    42    35 1
   40    43    38 1
   41    44     5 1
   42    44    17 1
   43    44    39 1
   44    45    10 1
   45    45    18 1
   46    45    40 1
   47    46    19 1
   48    46    41 1
   49    47    14 1
   50    47    16 1
   51    47    42 1
   52    48    38 1
   53    49    48 1
   54    50    49 1
   55    51    50 1
   56    52    51 1
   57    53    51 1
   58    54    53 1
   59    55    54 1
   60    56    55 1
   61    57    56 1
   62    58    56 1
   63    59    58 1
   64    60    59 1
   65    61    60 1
   66    62    61 1
   67    63    61 1
   68    64    27 1
   69    64    46 1
   70    65     5 1
   71    65    10 1
   72    65    64 1
   73    65    14 1
   74    66    23 1
   75    67    23 1
   76    68    23 1
   77    69    22 1
   78    70    22 1
   79    71    22 1
   80    72    21 1
   81    73    21 1
   82    74    21 1
   83    75    20 1
   84    76    20 1
   85    77    20 1
   86    78    15 1
   87    79    15 1
   88    80    15 1
   89    81     8 1
   90    82     8 1
   91    83     8 1
   92    84     7 1
   93    85     7 1
   94    86     6 1
   95    87     6 1
   96    88     3 1
   97    89     3 1
   98    90     1 1
   99    91     1 1
  100    92    63 1
  101    93    63 1
  102    94    63 1
  103    95    62 1
  104    96    62 1
  105    97    62 1
  106    98    60 1
  107    99    60 1
  108   100    59 1
  109   101    59 1
  110   102    58 1
  111   103    58 1
  112   104    57 1
  113   105    57 1
  114   106    57 1
  115   107    55 1
  116   108    55 1
  117   109    54 1
  118   110    54 1
  119   111    53 1
  120   112    53 1
  121   113    19 1
  122   114    18 1
  123   115    17 1
  124   116     9 1
  125   117     2 1
  126   118    52 1
  127   119    52 1
  128   120    52 1
  129   121    51 1
  130   122    50 1
  131   123    50 1
  132   124    49 1
  133   125    49 1
  134   126    48 1
  135   127    48 1
  136   128    43 1
  137   129    43 1
  138   130    43 1
  139   131    39 1
  140   132    32 1
  141   133    31 1
  142   134    61 1
  143   135    56 1
  144   136    24 1
  145   137    24 1
  146   139   138 1
  147   140   139 1
  148   141   140 1
  149   142   140 1
  150   143   142 1
  151   144   138 1
  152   144   143 1
  153   145   144 1
  154   146   145 1
  155   147   146 1
  156   148   147 1
  157   149   148 1
  158   150   149 1
  159   151   150 1
  160   152   151 1
  161   153   152 1
  162   154   138 1
  163   155   138 1
  164   156   143 1
  165   157   147 1
  166   158   151 1
  167   160   159 1
  168   161   160 1
  169   162   161 1
  170   163   161 1
  171   164   163 1
  172   165   159 1
  173   165   164 1
  174   166   165 1
  175   167   166 1
  176   168   167 1
  177   169   168 1
  178   170   169 1
  179   171   170 1
  180   172   171 1
  181   173   172 1
  182   174   153 1
  183   174   173 1
  184   175   159 1
  185   176   159 1
  186   177   164 1
  187   178   168 1
  188   179   172 1
  189   180   179 1
  190   181   179 1
  191   182   179 1
  192   183   178 1
  193   184   178 1
  194   185   178 1
  195   186   177 1
  196   187   177 1
  197   188   177 1
  198   189   176 1
  199   190   176 1
  200   191   176 1
  201   192   175 1
  202   193   175 1
  203   194   175 1
  204   195   160 1
  205   196   160 1
  206   197   158 1
  207   198   158 1
  208   199   158 1
  209   200   157 1
  210   201   157 1
  211   202   157 1
  212   203   156 1
  213   204   156 1
  214   205   156 1
  215   206   155 1
  216   207   155 1
  217   208   155 1
  218   209   154 1
  219   210   154 1
  220   211   154 1
  221   212   141 1
  222   213   146 1
  223   214   145 1
  224   215   142 1
  225   216   142 1
  226   217   174 1
  227   218   173 1
  228   219   171 1
  229   220   170 1
  230   221   169 1
  231   222   140 1
  232   223   167 1
  233   224   166 1
  234   225   165 1
  235   226   163 1
  236   227   161 1
  237   228   139 1
  238   229   139 1
  239   230   153 1
  240   231   152 1
  241   232   150 1
  242   233   149 1
  243   234   148 1
  244   235   162 1
  245   65    153 1
  246   65    174 1
@<TRIPOS>SUBSTRUCTURE
      1 CLA               1 ****               0 ****  **** 
      2 LUT             138 ****               0 ****  **** 
