@<TRIPOS>MOLECULE
Cpptraj generated mol2 file.
  235   246     2     0     0
SMALL
USER_CHARGES


@<TRIPOS>ATOM
      1 CAA        77.7975   59.0980   33.4594 a2         1 CLA     -0.055900
      2 CAB        78.3270   62.6596   42.3245 c8         1 CLA     -0.148500
      3 CAC        71.4049   58.3638   42.2386 a2         1 CLA     -0.012600
      4 CAD        73.9088   56.0229   34.8883 ck         1 CLA      0.398800
      5 NA         77.0856   59.0953   36.8363 ns         1 CLA     -0.225500
      6 CBA        78.9650   59.1461   32.4805 a2         1 CLA     -0.135000
      7 CBB        79.5368   63.2530   42.7381 c0         1 CLA     -0.395200
      8 CBC        71.5396   56.8626   42.5165 a3         1 CLA     -0.037700
      9 CBD        75.2497   56.7022   34.4001 a1         1 CLA     -0.053900
     10 NB         77.0418   60.6977   39.4021 nm         1 CLA     -0.295700
     11 OBD        73.1521   55.4258   34.1590 o2         1 CLA     -0.494600
     12 CGA        79.4927   57.7325   31.8853 c4         1 CLA      0.827000
     13 CGD        76.2421   55.7018   33.9174 c4         1 CLA      0.655300
     14 ND         74.3876   58.0578   37.6098 nm         1 CLA     -0.291600
     15 CED        77.1102   53.4654   34.1985 a3         1 CLA      0.005400
     16 CHA        75.6719   57.6357   35.4783 cs         1 CLA     -0.123800
     17 CHB        78.8600   60.6472   37.7268 aa         1 CLA     -0.291900
     18 CHC        75.7996   60.9132   41.4968 aa         1 CLA     -0.090400
     19 CHD        72.5782   57.9196   39.2749 aa         1 CLA     -0.052000
     20 CMA        80.4323   58.4549   35.9577 a3         1 CLA     -0.230700
     21 CMB        80.2780   62.7858   39.6353 a3         1 CLA     -0.180800
     22 CMC        73.7142   60.2122   43.6554 a3         1 CLA     -0.134000
     23 CMD        71.3837   55.8459   37.2288 a3         1 CLA     -0.141100
     24 C1         80.4207   55.5616   32.5993 a2         1 CLA      0.023000
     25 C1A        76.8644   58.3509   35.6589 ac         1 CLA     -0.015100
     26 C1B        78.3109   61.1002   38.9348 cr         1 CLA      0.054700
     27 C1C        74.7131   60.0907   41.2361 cn         1 CLA     -0.005600
     28 C1D        73.1463   57.5302   38.0858 ap         1 CLA     -0.047300
     29 O1A        79.3148   57.3058   30.7586 o2         1 CLA     -0.610800
     30 O1D        76.9514   55.7868   32.8974 o2         1 CLA     -0.558200
     31 C2         80.9054   54.9693   33.8722 c8         1 CLA     -0.325100
     32 C2A        78.1031   58.3937   34.7925 a1         1 CLA      0.098600
     33 C2B        78.9274   62.0330   39.9045 cb         1 CLA      0.088500
     34 C2C        73.6894   59.7579   42.1965 cb         1 CLA      0.053700
     35 C2D        72.6718   56.6261   37.0982 cb         1 CLA      0.058900
     36 O2A        80.1794   57.0313   32.8229 o1         1 CLA     -0.437200
     37 O2D        76.4063   54.6172   34.8423 o1         1 CLA     -0.357600
     38 C3         81.9928   54.2363   33.9711 c5         1 CLA      0.031200
     39 C3A        79.1827   59.2239   35.6060 a1         1 CLA      0.166800
     40 C3B        78.0580   62.0667   41.0604 cb         1 CLA      0.035000
     41 C3C        72.7128   58.9427   41.5900 cb         1 CLA     -0.089900
     42 C3D        73.6514   56.5932   36.0927 cb         1 CLA     -0.035900
     43 C4         81.7005   52.7394   33.9217 a3         1 CLA     -0.053300
     44 C4A        78.3293   59.7107   36.8130 ac         1 CLA      0.001800
     45 C4B        76.8629   61.2061   40.6660 cn         1 CLA     -0.020900
     46 C4C        73.1492   58.7754   40.2285 cr         1 CLA     -0.044400
     47 C4D        74.7079   57.4898   36.4572 c6         1 CLA     -0.046000
     48 C5         83.3840   54.8592   33.8182 a2         1 CLA     -0.070400
     49 C6         83.7283   56.2324   34.4387 a2         1 CLA      0.043900
     50 C7         83.7858   56.0319   35.9438 a2         1 CLA     -0.150000
     51 C8         84.1473   57.2799   36.8677 a1         1 CLA      0.064200
     52 C9         85.5982   57.6862   36.5890 a3         1 CLA     -0.259300
     53 C10        83.7334   56.9616   38.2952 a2         1 CLA     -0.071900
     54 C11        84.0860   58.1335   39.2391 a2         1 CLA      0.014500
     55 C12        83.7198   58.0068   40.7305 a2         1 CLA     -0.112100
     56 C13        82.2537   57.9873   41.1684 a1         1 CLA      0.089200
     57 C14        81.2909   59.1648   40.6402 a3         1 CLA     -0.239100
     58 C15        82.2362   57.9622   42.7512 a2         1 CLA     -0.102200
     59 C16        82.2683   59.1914   43.6081 a2         1 CLA      0.023900
     60 C17        83.6304   59.8701   43.7205 a2         1 CLA     -0.105700
     61 C18        83.6583   60.9501   44.8596 a1         1 CLA      0.206800
     62 C19        82.5082   62.0022   44.8329 a3         1 CLA     -0.280100
     63 C20        83.8920   60.3113   46.3109 a3         1 CLA     -0.280100
     64 NC         74.4009   59.4409   40.0801 nx         1 CLA     -0.309200
     65 MG         75.6414   59.4463   38.3616 mg         1 CLA      0.895000
     66 HMD3       70.5215   56.5292   37.0395 dc         1 CLA      0.064300
     67 HMD2       71.3459   55.1085   36.4537 dc         1 CLA      0.064300
     68 HMD1       71.2624   55.4315   38.2160 dc         1 CLA      0.064300
     69 HMC3       74.6343   60.6641   43.8447 dc         1 CLA      0.052100
     70 HMC2       72.7734   60.7869   43.7264 dc         1 CLA      0.052100
     71 HMC1       73.5847   59.3558   44.3948 dc         1 CLA      0.052100
     72 HMB3       80.2889   63.7686   40.1009 dc         1 CLA      0.063600
     73 HMB2       81.0745   62.1660   40.0347 dc         1 CLA      0.063600
     74 HMB1       80.4647   62.8293   38.5492 dc         1 CLA      0.063600
     75 HMA3       81.0341   59.2715   36.4109 dc         1 CLA      0.058300
     76 HMA2       80.2183   57.5985   36.6846 dc         1 CLA      0.058300
     77 HMA1       80.8639   58.2346   35.0241 dc         1 CLA      0.058300
     78 HED3       78.1324   53.6380   34.1476 dc         1 CLA      0.079300
     79 HED2       76.9092   52.6131   34.9178 dc         1 CLA      0.079300
     80 HED1       76.7459   53.2865   33.1689 dc         1 CLA      0.079300
     81 HBC3       70.8484   56.5313   43.3371 dc         1 CLA      0.016300
     82 HBC2       71.3081   56.2936   41.5836 dc         1 CLA      0.016300
     83 HBC1       72.5733   56.7040   42.7004 dc         1 CLA      0.016300
     84 HBB2       79.5624   63.8224   43.6927 da         1 CLA      0.183000
     85 HBB1       80.4616   63.4679   42.1210 da         1 CLA      0.183000
     86 HBA2       78.7913   59.7111   31.5402 dc         1 CLA      0.029400
     87 HBA1       79.8121   59.6325   33.0259 dc         1 CLA      0.029400
     88 HAC2       71.2822   58.8919   43.2280 dc         1 CLA      0.029300
     89 HAC1       70.5351   58.5303   41.6198 dc         1 CLA      0.029300
     90 HAA2       76.9190   58.7510   33.0516 dc         1 CLA      0.028700
     91 HAA1       77.5956   60.1693   33.6819 dc         1 CLA      0.028700
     92 H203       84.9588   59.8956   46.1773 dc         1 CLA      0.065600
     93 H202       83.8554   61.1144   46.9922 dc         1 CLA      0.065600
     94 H201       83.0736   59.5624   46.5083 dc         1 CLA      0.065600
     95 H193       82.2405   62.3681   43.8073 dc         1 CLA      0.065600
     96 H192       81.6198   61.5647   45.2526 dc         1 CLA      0.065600
     97 H191       82.8063   62.8045   45.5588 dc         1 CLA      0.065600
     98 H172       84.3700   59.1366   44.0298 dc         1 CLA      0.027600
     99 H171       83.8279   60.5373   42.8196 dc         1 CLA      0.027600
    100 H162       81.5088   59.9553   43.3380 dc         1 CLA      0.002900
    101 H161       82.1572   58.8537   44.6483 dc         1 CLA      0.002900
    102 H152       81.3199   57.3826   42.9671 dc         1 CLA      0.029100
    103 H151       83.0965   57.3862   43.1883 dc         1 CLA      0.029100
    104 H143       80.2977   58.9764   41.0843 dc         1 CLA      0.063600
    105 H142       81.6827   60.1478   40.7752 dc         1 CLA      0.063600
    106 H141       81.1141   59.0966   39.4765 dc         1 CLA      0.063600
    107 H122       84.3064   57.1954   41.1927 dc         1 CLA      0.032500
    108 H121       84.0795   58.9141   41.1562 dc         1 CLA      0.032500
    109 H112       85.1468   58.3140   39.1661 dc         1 CLA      0.006600
    110 H111       83.6459   59.0691   38.9185 dc         1 CLA      0.006600
    111 H102       82.6825   56.6755   38.4956 dc         1 CLA      0.024100
    112 H101       84.3384   56.1090   38.6366 dc         1 CLA      0.024100
    113 HHD        71.6808   57.4525   39.5313 da         1 CLA      0.174300
    114 HHC        75.7355   61.4994   42.4305 da         1 CLA      0.136800
    115 HHB        79.9217   61.0540   37.4547 da         1 CLA      0.138300
    116 HBD        74.9409   57.3226   33.5428 dc         1 CLA      0.107700
    117 HAB        77.4860   62.5967   43.0262 da         1 CLA      0.155200
    118 H93        86.2088   56.8231   36.5856 dc         1 CLA      0.069500
    119 H92        85.6413   58.2012   35.7052 dc         1 CLA      0.069500
    120 H91        86.0212   58.2888   37.3689 dc         1 CLA      0.069500
    121 H8         83.4277   58.1190   36.7446 dc         1 CLA      0.029300
    122 H72        82.7568   55.7661   36.1375 dc         1 CLA      0.044400
    123 H71        84.5636   55.1935   36.1169 dc         1 CLA      0.044400
    124 H62        84.5774   56.5708   33.9573 dc         1 CLA      0.015600
    125 H61        82.8621   56.8961   34.2545 dc         1 CLA      0.015600
    126 H52        84.1263   54.2146   34.2214 dc         1 CLA      0.033200
    127 H51        83.6716   55.0541   32.7542 dc         1 CLA      0.033200
    128 H43        81.8073   52.2766   34.8698 dc         1 CLA      0.037000
    129 H42        80.7026   52.5306   33.5278 dc         1 CLA      0.037000
    130 H41        82.4445   52.2145   33.3017 dc         1 CLA      0.037000
    131 H3A        79.5970   60.1009   35.1325 dc         1 CLA      0.041100
    132 H2A        78.4302   57.4149   34.4347 dc         1 CLA      0.083100
    133 H2         80.7122   55.3742   34.9007 da         1 CLA      0.180900
    134 H18        84.6423   61.4169   44.7152 dc         1 CLA     -0.003900
    135 H13        81.8406   57.0444   40.7589 dc         1 CLA      0.019700
    136 H12        79.4817   54.9986   32.2894 dc         1 CLA      0.120400
    137 H11        81.0898   55.3429   31.8171 dc         1 CLA      0.120400
    138 C1         68.5906   61.0398   49.7302 Z1         2 LUT      0.509236
    139 C2         68.5465   61.7858   51.0756 Z2         2 LUT     -0.434695
    140 C3         67.0765   62.1166   51.4126 Z3         2 LUT      0.437453
    141 O3         67.0875   62.8335   52.6288 S1         2 LUT     -0.547129
    142 C4         66.4292   62.9984   50.2587 Z4         2 LUT     -0.468603
    143 C5         66.9961   62.8504   48.8251 Z5         2 LUT      0.279246
    144 C6         67.9654   61.8820   48.6153 Z6         2 LUT     -0.305473
    145 C7         68.6043   61.8040   47.2365 Z7         2 LUT      0.069402
    146 C8         69.3297   62.6477   46.5397 Z8         2 LUT     -0.191631
    147 C9         69.8424   62.4500   45.1526 Z9         2 LUT      0.196698
    148 C10        70.6099   63.4641   44.6204 Y1         2 LUT     -0.208611
    149 C11        71.3423   63.3885   43.3758 Y2         2 LUT      0.030784
    150 C12        72.3638   64.2194   43.0329 Y3         2 LUT     -0.220316
    151 C13        73.3000   64.2360   41.9067 Y4         2 LUT      0.215937
    152 C14        74.3947   65.0721   42.0307 Y5         2 LUT     -0.185793
    153 C15        75.5816   65.0261   41.2225 Y6         2 LUT     -0.057835
    154 C16        67.8293   59.7730   49.8778 Y7         2 LUT     -0.405615
    155 C17        70.0863   60.7431   49.5719 Y7         2 LUT     -0.405615
    156 C18        66.5209   63.9213   47.9121 Y9         2 LUT     -0.369639
    157 C19        69.5992   61.1902   44.4376 W1         2 LUT     -0.333362
    158 C20        73.0986   63.2469   40.7283 W2         2 LUT     -0.323439
    159 C21        86.7033   66.0711   34.8684 Z1         2 LUT      0.406104
    160 C22        87.3556   65.4215   33.5341 Z2         2 LUT     -0.404965
    161 C23        87.3933   66.2513   32.2695 Z3         2 LUT      0.391255
    162 O23        87.8616   65.2817   31.2597 S1         2 LUT     -0.528210
    163 C24        85.9870   67.0718   32.1579 W6         2 LUT     -0.258361
    164 C25        85.1154   67.3121   33.1690 Z5         2 LUT      0.133546
    165 C26        85.3263   66.5849   34.4714 W8         2 LUT     -0.147008
    166 C27        84.5129   67.2372   35.5527 Z7         2 LUT      0.023843
    167 C28        83.5254   66.6753   36.2274 Z8         2 LUT     -0.216987
    168 C29        82.9547   67.2795   37.4807 Z9         2 LUT      0.206524
    169 C30        81.9229   66.5924   38.0598 Y1         2 LUT     -0.215556
    170 C31        81.1459   66.8392   39.2945 Y2         2 LUT      0.025142
    171 C32        79.9609   66.2763   39.4659 Y3         2 LUT     -0.212209
    172 C33        79.0590   66.3118   40.5927 Y4         2 LUT      0.240937
    173 C34        77.8596   65.6374   40.5583 Y5         2 LUT     -0.218862
    174 C35        76.7931   65.6361   41.4626 Y6         2 LUT     -0.023547
    175 C36        87.7322   67.2681   35.1806 Y7         2 LUT     -0.393485
    176 C37        86.7354   64.9023   35.8585 Y7         2 LUT     -0.393485
    177 C38        83.7601   68.0157   32.9496 Y9         2 LUT     -0.387526
    178 C39        83.4060   68.6378   37.9554 W1         2 LUT     -0.322618
    179 C40        79.6047   67.0744   41.7912 W2         2 LUT     -0.358472
    180 H403       80.3433   66.4886   42.3248 R7         2 LUT      0.097720
    181 H402       80.0206   68.0518   41.5116 R7         2 LUT      0.097720
    182 H401       78.8078   67.2704   42.4974 R7         2 LUT      0.097720
    183 H393       84.4850   68.9312   37.9984 R4         2 LUT      0.082505
    184 H392       83.0239   69.4010   37.3013 R4         2 LUT      0.082505
    185 H391       83.0673   68.8708   38.9588 R4         2 LUT      0.082505
    186 H383       82.8872   67.4594   33.3907 R1         2 LUT      0.104030
    187 H382       83.6901   69.0326   33.2664 R1         2 LUT      0.104030
    188 H381       83.5271   67.9397   31.9131 R1         2 LUT      0.104030
    189 H373       86.1346   64.0597   35.4601 T4         2 LUT      0.089537
    190 H372       87.8044   64.6557   36.0796 T4         2 LUT      0.089537
    191 H371       86.2128   65.1828   36.7867 T4         2 LUT      0.089537
    192 H363       87.9868   67.9334   34.3582 T4         2 LUT      0.089537
    193 H362       87.2129   67.8813   35.8910 T4         2 LUT      0.089537
    194 H361       88.6785   66.8629   35.6367 T4         2 LUT      0.089537
    195 H222       88.3139   64.9344   33.8225 U2         2 LUT      0.127376
    196 H221       86.6702   64.7346   33.1171 U2         2 LUT      0.127376
    197 H203       73.6666   62.3807   40.9285 R7         2 LUT      0.087068
    198 H202       72.0717   62.9568   40.6343 R7         2 LUT      0.087068
    199 H201       73.4713   63.6234   39.7259 R7         2 LUT      0.087068
    200 H193       69.7235   60.2920   45.0424 R4         2 LUT      0.089716
    201 H192       68.5788   61.2080   44.1765 R4         2 LUT      0.089716
    202 H191       70.1840   60.8440   43.6115 R4         2 LUT      0.089716
    203 H183       67.1992   64.7373   47.9272 R1         2 LUT      0.094572
    204 H182       66.2904   63.5967   46.8952 R1         2 LUT      0.094572
    205 H181       65.5437   64.2702   48.3040 R1         2 LUT      0.094572
    206 H173       70.4209   59.9722   50.2537 T4         2 LUT      0.093752
    207 H172       70.2966   60.2571   48.6081 T4         2 LUT      0.093752
    208 H171       70.7493   61.6071   49.5884 T4         2 LUT      0.093752
    209 H163       68.0037   59.0851   50.7272 T4         2 LUT      0.093752
    210 H162       66.8257   59.8355   49.7443 T4         2 LUT      0.093752
    211 H161       68.2164   59.1490   49.0928 T4         2 LUT      0.093752
    212 HO3        66.3755   62.4632   53.1847 Q1         2 LUT      0.300121
    213 H8         69.3818   63.6558   47.0077 U7         2 LUT      0.080784
    214 H7         68.3815   60.8643   46.8014 U6         2 LUT      0.042190
    215 H42        65.3967   62.8364   50.3686 U5         2 LUT      0.145166
    216 H41        66.6008   64.0481   50.5149 U5         2 LUT      0.145166
    217 H35        76.9471   66.0466   42.4290 T3         2 LUT      0.077919
    218 H34        77.6436   65.0426   39.6568 T2         2 LUT      0.073626
    219 H32        79.5739   65.6207   38.6712 T1         2 LUT      0.092510
    220 H31        81.5836   67.3997   40.0981 U9         2 LUT      0.070048
    221 H30        81.6284   65.7250   37.5155 U8         2 LUT      0.085442
    222 H3         66.5583   61.1165   51.4689 U3         2 LUT     -0.031596
    223 H28        83.2248   65.6542   35.8856 U7         2 LUT      0.084728
    224 H27        85.0501   68.1423   35.8650 U6         2 LUT      0.087291
    225 H26        84.5870   65.7634   34.3220 Q6         2 LUT      0.075325
    226 H24        85.7350   67.4776   31.1902 Q5         2 LUT      0.094482
    227 H23        88.0609   67.0242   32.4159 U3         2 LUT     -0.024869
    228 H22        69.0091   61.2409   51.9343 U2         2 LUT      0.127376
    229 H21        69.0187   62.7598   50.9871 U2         2 LUT      0.127376
    230 H15        75.5804   64.4886   40.3143 T3         2 LUT      0.093200
    231 H14        74.6222   65.4752   42.9856 T2         2 LUT      0.068865
    232 H12        72.6432   64.9212   43.8081 T1         2 LUT      0.095507
    233 H11        71.1128   62.6385   42.6297 U9         2 LUT      0.068930
    234 H10        70.8904   64.2532   45.3052 U8         2 LUT      0.083911
    235 H1         87.8186   65.7754   30.4325 Q1         2 LUT      0.297311
@<TRIPOS>BOND
    1     6     1 1
    2     7     2 1
    3     8     3 1
    4     9     4 1
    5    11     4 1
    6    12     6 1
    7    13     9 1
    8    16     9 1
    9    25     5 1
   10    25    16 1
   11    26    10 1
   12    26    17 1
   13    27    18 1
   14    28    14 1
   15    28    19 1
   16    29    12 1
   17    30    13 1
   18    31    24 1
   19    32     1 1
   20    32    25 1
   21    33    21 1
   22    33    26 1
   23    34    22 1
   24    34    27 1
   25    35    23 1
   26    35    28 1
   27    36    12 1
   28    36    24 1
   29    37    13 1
   30    37    15 1
   31    38    31 1
   32    39    20 1
   33    39    32 1
   34    40     2 1
   35    40    33 1
   36    41     3 1
   37    41    34 1
   38    42     4 1
   39    42    35 1
   40    43    38 1
   41    44     5 1
   42    44    17 1
   43    44    39 1
   44    45    10 1
   45    45    18 1
   46    45    40 1
   47    46    19 1
   48    46    41 1
   49    47    14 1
   50    47    16 1
   51    47    42 1
   52    48    38 1
   53    49    48 1
   54    50    49 1
   55    51    50 1
   56    52    51 1
   57    53    51 1
   58    54    53 1
   59    55    54 1
   60    56    55 1
   61    57    56 1
   62    58    56 1
   63    59    58 1
   64    60    59 1
   65    61    60 1
   66    62    61 1
   67    63    61 1
   68    64    27 1
   69    64    46 1
   70    65     5 1
   71    65    10 1
   72    65    64 1
   73    65    14 1
   74    66    23 1
   75    67    23 1
   76    68    23 1
   77    69    22 1
   78    70    22 1
   79    71    22 1
   80    72    21 1
   81    73    21 1
   82    74    21 1
   83    75    20 1
   84    76    20 1
   85    77    20 1
   86    78    15 1
   87    79    15 1
   88    80    15 1
   89    81     8 1
   90    82     8 1
   91    83     8 1
   92    84     7 1
   93    85     7 1
   94    86     6 1
   95    87     6 1
   96    88     3 1
   97    89     3 1
   98    90     1 1
   99    91     1 1
  100    92    63 1
  101    93    63 1
  102    94    63 1
  103    95    62 1
  104    96    62 1
  105    97    62 1
  106    98    60 1
  107    99    60 1
  108   100    59 1
  109   101    59 1
  110   102    58 1
  111   103    58 1
  112   104    57 1
  113   105    57 1
  114   106    57 1
  115   107    55 1
  116   108    55 1
  117   109    54 1
  118   110    54 1
  119   111    53 1
  120   112    53 1
  121   113    19 1
  122   114    18 1
  123   115    17 1
  124   116     9 1
  125   117     2 1
  126   118    52 1
  127   119    52 1
  128   120    52 1
  129   121    51 1
  130   122    50 1
  131   123    50 1
  132   124    49 1
  133   125    49 1
  134   126    48 1
  135   127    48 1
  136   128    43 1
  137   129    43 1
  138   130    43 1
  139   131    39 1
  140   132    32 1
  141   133    31 1
  142   134    61 1
  143   135    56 1
  144   136    24 1
  145   137    24 1
  146   139   138 1
  147   140   139 1
  148   141   140 1
  149   142   140 1
  150   143   142 1
  151   144   138 1
  152   144   143 1
  153   145   144 1
  154   146   145 1
  155   147   146 1
  156   148   147 1
  157   149   148 1
  158   150   149 1
  159   151   150 1
  160   152   151 1
  161   153   152 1
  162   154   138 1
  163   155   138 1
  164   156   143 1
  165   157   147 1
  166   158   151 1
  167   160   159 1
  168   161   160 1
  169   162   161 1
  170   163   161 1
  171   164   163 1
  172   165   159 1
  173   165   164 1
  174   166   165 1
  175   167   166 1
  176   168   167 1
  177   169   168 1
  178   170   169 1
  179   171   170 1
  180   172   171 1
  181   173   172 1
  182   174   153 1
  183   174   173 1
  184   175   159 1
  185   176   159 1
  186   177   164 1
  187   178   168 1
  188   179   172 1
  189   180   179 1
  190   181   179 1
  191   182   179 1
  192   183   178 1
  193   184   178 1
  194   185   178 1
  195   186   177 1
  196   187   177 1
  197   188   177 1
  198   189   176 1
  199   190   176 1
  200   191   176 1
  201   192   175 1
  202   193   175 1
  203   194   175 1
  204   195   160 1
  205   196   160 1
  206   197   158 1
  207   198   158 1
  208   199   158 1
  209   200   157 1
  210   201   157 1
  211   202   157 1
  212   203   156 1
  213   204   156 1
  214   205   156 1
  215   206   155 1
  216   207   155 1
  217   208   155 1
  218   209   154 1
  219   210   154 1
  220   211   154 1
  221   212   141 1
  222   213   146 1
  223   214   145 1
  224   215   142 1
  225   216   142 1
  226   217   174 1
  227   218   173 1
  228   219   171 1
  229   220   170 1
  230   221   169 1
  231   222   140 1
  232   223   167 1
  233   224   166 1
  234   225   165 1
  235   226   163 1
  236   227   161 1
  237   228   139 1
  238   229   139 1
  239   230   153 1
  240   231   152 1
  241   232   150 1
  242   233   149 1
  243   234   148 1
  244   235   162 1
  245   65    153 1
  246   65    174 1
@<TRIPOS>SUBSTRUCTURE
      1 CLA               1 ****               0 ****  **** 
      2 LUT             138 ****               0 ****  **** 
