@<TRIPOS>MOLECULE
Cpptraj generated mol2 file.
  235   246     2     0     0
SMALL
USER_CHARGES


@<TRIPOS>ATOM
      1 CAA        78.7719   56.9283   35.3942 a2         1 CLA     -0.055900
      2 CAB        78.0657   61.3250   44.0293 c8         1 CLA     -0.148500
      3 CAC        71.1634   56.7589   43.3267 a2         1 CLA     -0.012600
      4 CAD        74.6508   54.1983   36.3324 ck         1 CLA      0.398800
      5 NA         77.5443   57.3484   38.7538 ns         1 CLA     -0.225500
      6 CBA        80.0627   56.5701   34.5889 a2         1 CLA     -0.135000
      7 CBB        77.7348   60.7960   45.2679 c0         1 CLA     -0.395200
      8 CBC        71.1340   55.2093   43.3503 a3         1 CLA     -0.037700
      9 CBD        76.1843   54.7987   36.1557 a1         1 CLA     -0.053900
     10 NB         77.0716   59.0943   41.1750 nm         1 CLA     -0.295700
     11 OBD        74.0603   53.4049   35.5685 o2         1 CLA     -0.494600
     12 CGA        80.3503   55.1467   34.1530 c4         1 CLA      0.827000
     13 CGD        77.1808   53.6511   36.2929 c4         1 CLA      0.655300
     14 ND         74.8245   56.3440   39.1133 nm         1 CLA     -0.291600
     15 CED        77.8814   51.6971   37.5314 a3         1 CLA      0.005400
     16 CHA        76.3492   55.8258   37.2671 cs         1 CLA     -0.123800
     17 CHB        79.1626   58.7762   39.8082 aa         1 CLA     -0.291900
     18 CHC        75.4995   59.4696   43.0525 aa         1 CLA     -0.090400
     19 CHD        72.7577   56.3566   40.5335 aa         1 CLA     -0.052000
     20 CMA        80.8673   56.5475   38.3197 a3         1 CLA     -0.230700
     21 CMB        80.3169   60.9045   41.7952 a3         1 CLA     -0.180800
     22 CMC        73.2022   58.8169   45.0311 a3         1 CLA     -0.134000
     23 CMD        71.7517   54.3250   38.3683 a3         1 CLA     -0.141100
     24 C1         81.1897   53.0047   34.9109 a2         1 CLA      0.023000
     25 C1A        77.4627   56.4906   37.6064 ac         1 CLA     -0.015100
     26 C1B        78.3822   59.4474   40.8194 cr         1 CLA      0.054700
     27 C1C        74.4075   58.7186   42.6657 cn         1 CLA     -0.005600
     28 C1D        73.4628   55.9185   39.3444 ap         1 CLA     -0.047300
     29 O1A        80.2245   54.6542   33.0401 o2         1 CLA     -0.610800
     30 O1D        77.8891   53.3101   35.3886 o2         1 CLA     -0.558200
     31 C2         81.8889   52.5881   36.2467 c8         1 CLA     -0.325100
     32 C2A        78.7658   56.4149   36.8208 a1         1 CLA      0.098600
     33 C2B        78.8887   60.3706   41.7734 cb         1 CLA      0.088500
     34 C2C        73.2965   58.2927   43.5324 cb         1 CLA      0.053700
     35 C2D        73.0429   55.0060   38.3463 cb         1 CLA      0.058900
     36 O2A        80.8435   54.4342   35.2238 o1         1 CLA     -0.437200
     37 O2D        77.0857   52.9835   37.5069 o1         1 CLA     -0.357600
     38 C3         83.2122   52.3426   36.3683 c5         1 CLA      0.031200
     39 C3A        79.7260   57.2936   37.6876 a1         1 CLA      0.166800
     40 C3B        77.9202   60.5311   42.7787 cb         1 CLA      0.035000
     41 C3C        72.5018   57.4251   42.7942 cb         1 CLA     -0.089900
     42 C3D        74.1639   54.8863   37.4948 cb         1 CLA     -0.035900
     43 C4         83.8212   50.9470   36.2509 a3         1 CLA     -0.053300
     44 C4A        78.8005   57.8625   38.7851 ac         1 CLA      0.001800
     45 C4B        76.7129   59.6914   42.3605 cn         1 CLA     -0.020900
     46 C4C        73.2312   57.2237   41.5134 cr         1 CLA     -0.044400
     47 C4D        75.1890   55.7642   37.9842 c6         1 CLA     -0.046000
     48 C5         84.1378   53.5529   36.6132 a2         1 CLA     -0.070400
     49 C6         84.6925   53.6191   38.0141 a2         1 CLA      0.043900
     50 C7         85.2937   55.0049   38.2512 a2         1 CLA     -0.150000
     51 C8         84.2757   56.1519   38.4581 a1         1 CLA      0.064200
     52 C9         84.2146   57.1077   37.3105 a3         1 CLA     -0.259300
     53 C10        84.4518   57.0000   39.7275 a2         1 CLA     -0.071900
     54 C11        84.0901   56.2559   40.9857 a2         1 CLA      0.014500
     55 C12        84.2764   57.2380   42.2181 a2         1 CLA     -0.112100
     56 C13        84.2365   56.7690   43.7519 a1         1 CLA      0.089200
     57 C14        83.0749   55.9038   44.0582 a3         1 CLA     -0.239100
     58 C15        84.4922   57.8955   44.7586 a2         1 CLA     -0.102200
     59 C16        83.2928   58.8084   44.8680 a2         1 CLA      0.023900
     60 C17        83.4131   59.7494   46.1270 a2         1 CLA     -0.105700
     61 C18        82.2660   60.7893   46.2634 a1         1 CLA      0.206800
     62 C19        81.0524   60.0340   46.9572 a3         1 CLA     -0.280100
     63 C20        82.6764   62.0397   47.0440 a3         1 CLA     -0.280100
     64 NC         74.3711   57.9658   41.4808 nx         1 CLA     -0.309200
     65 MG         75.9102   57.8865   39.9607 mg         1 CLA      0.895000
     66 HMD3       71.5918   54.0580   39.4018 dc         1 CLA      0.064300
     67 HMD2       70.8941   54.8780   37.9830 dc         1 CLA      0.064300
     68 HMD1       71.8254   53.3894   37.8709 dc         1 CLA      0.064300
     69 HMC3       73.5033   59.8888   45.1434 dc         1 CLA      0.052100
     70 HMC2       72.1834   58.7855   45.4349 dc         1 CLA      0.052100
     71 HMC1       73.8692   58.2081   45.6961 dc         1 CLA      0.052100
     72 HMB3       80.8583   59.9914   41.6078 dc         1 CLA      0.063600
     73 HMB2       80.3690   61.6448   40.9987 dc         1 CLA      0.063600
     74 HMB1       80.5391   61.4327   42.7315 dc         1 CLA      0.063600
     75 HMA3       80.4287   55.8143   39.0386 dc         1 CLA      0.058300
     76 HMA2       81.3792   55.9505   37.5398 dc         1 CLA      0.058300
     77 HMA1       81.5800   57.2235   38.7413 dc         1 CLA      0.058300
     78 HED3       77.9424   51.3805   38.5610 dc         1 CLA      0.079300
     79 HED2       77.3755   50.9080   36.9157 dc         1 CLA      0.079300
     80 HED1       78.9317   51.8815   37.2219 dc         1 CLA      0.079300
     81 HBC3       70.5714   54.8917   44.1385 dc         1 CLA      0.016300
     82 HBC2       70.7938   54.7282   42.4789 dc         1 CLA      0.016300
     83 HBC1       72.0866   54.8667   43.5317 dc         1 CLA      0.016300
     84 HBB2       77.7464   61.3489   46.1887 da         1 CLA      0.183000
     85 HBB1       77.3181   59.8041   45.3192 da         1 CLA      0.183000
     86 HBA2       80.0503   57.2144   33.7572 dc         1 CLA      0.029400
     87 HBA1       80.9176   56.8493   35.1727 dc         1 CLA      0.029400
     88 HAC2       70.9874   56.9813   44.3577 dc         1 CLA      0.029300
     89 HAC1       70.3362   57.1104   42.6985 dc         1 CLA      0.029300
     90 HAA2       77.9192   56.4682   34.8271 dc         1 CLA      0.028700
     91 HAA1       78.8042   58.0036   35.3497 dc         1 CLA      0.028700
     92 H203       83.3049   62.7003   46.4425 dc         1 CLA      0.065600
     93 H202       81.7799   62.6045   47.3279 dc         1 CLA      0.065600
     94 H201       83.1459   61.7920   47.9544 dc         1 CLA      0.065600
     95 H193       81.2704   59.7886   47.9496 dc         1 CLA      0.065600
     96 H192       80.1107   60.5477   46.8553 dc         1 CLA      0.065600
     97 H191       80.8624   59.1470   46.3481 dc         1 CLA      0.065600
     98 H172       83.5699   59.1187   47.0382 dc         1 CLA      0.027600
     99 H171       84.3433   60.3730   46.0644 dc         1 CLA      0.027600
    100 H162       83.2257   59.3266   43.9910 dc         1 CLA      0.002900
    101 H161       82.3146   58.3496   45.1054 dc         1 CLA      0.002900
    102 H152       84.8431   57.5054   45.7319 dc         1 CLA      0.029100
    103 H151       85.3230   58.5588   44.4508 dc         1 CLA      0.029100
    104 H143       83.3315   54.8952   43.7529 dc         1 CLA      0.063600
    105 H142       82.8972   55.8855   45.1798 dc         1 CLA      0.063600
    106 H141       82.1872   56.3501   43.5302 dc         1 CLA      0.063600
    107 H122       85.1774   57.7774   42.0865 dc         1 CLA      0.032500
    108 H121       83.4227   57.8929   42.1449 dc         1 CLA      0.032500
    109 H112       83.0439   55.9155   40.9001 dc         1 CLA      0.006600
    110 H111       84.6940   55.3644   41.2060 dc         1 CLA      0.006600
    111 H102       85.5414   57.2444   39.8288 dc         1 CLA      0.024100
    112 H101       83.7841   57.8590   39.6867 dc         1 CLA      0.024100
    113 HHD        71.8202   55.8526   40.7548 da         1 CLA      0.174300
    114 HHC        75.4795   59.8622   44.0426 da         1 CLA      0.136800
    115 HHB        80.2237   59.0382   39.6214 da         1 CLA      0.138300
    116 HBD        76.2043   55.2500   35.1376 dc         1 CLA      0.107700
    117 HAB        78.4859   62.3465   43.9902 da         1 CLA      0.155200
    118 H93        84.3565   56.4727   36.4316 dc         1 CLA      0.069500
    119 H92        83.2961   57.6614   37.2429 dc         1 CLA      0.069500
    120 H91        85.0064   57.8797   37.3639 dc         1 CLA      0.069500
    121 H8         83.2789   55.7732   38.4526 dc         1 CLA      0.029300
    122 H72        85.8211   54.9644   39.1713 dc         1 CLA      0.044400
    123 H71        86.1121   55.2944   37.5771 dc         1 CLA      0.044400
    124 H62        83.8775   53.3403   38.6782 dc         1 CLA      0.015600
    125 H61        85.4948   52.9452   38.1913 dc         1 CLA      0.015600
    126 H52        85.0154   53.4568   35.9388 dc         1 CLA      0.033200
    127 H51        83.5995   54.3789   36.2584 dc         1 CLA      0.033200
    128 H43        83.8706   50.5344   37.2656 dc         1 CLA      0.037000
    129 H42        83.2958   50.2282   35.6680 dc         1 CLA      0.037000
    130 H41        84.8562   50.9769   35.8768 dc         1 CLA      0.037000
    131 H3A        80.0530   58.1652   37.1243 dc         1 CLA      0.041100
    132 H2A        78.9963   55.3290   36.9364 dc         1 CLA      0.083100
    133 H2         81.3297   52.7060   37.1302 da         1 CLA      0.180900
    134 H18        82.0402   61.0914   45.2548 dc         1 CLA     -0.003900
    135 H13        85.1082   56.0854   43.9383 dc         1 CLA      0.019700
    136 H12        80.4080   52.3108   34.6927 dc         1 CLA      0.120400
    137 H11        81.8436   53.0069   34.0333 dc         1 CLA      0.120400
    138 C1         68.6337   60.4956   49.9517 Z1         2 LUT      0.509236
    139 C2         67.2897   60.1241   50.6170 Z2         2 LUT     -0.434695
    140 C3         66.3773   61.3185   51.0655 Z3         2 LUT      0.437453
    141 O3         66.7255   62.0197   52.2880 S1         2 LUT     -0.547129
    142 C4         66.4320   62.3208   49.9003 Z4         2 LUT     -0.468603
    143 C5         67.2956   62.1287   48.6611 Z5         2 LUT      0.279246
    144 C6         68.3839   61.3148   48.7262 Z6         2 LUT     -0.305473
    145 C7         68.8247   60.7782   47.3928 Z7         2 LUT      0.069402
    146 C8         69.6216   61.4503   46.5031 Z8         2 LUT     -0.191631
    147 C9         70.1612   61.1821   45.2423 Z9         2 LUT      0.196698
    148 C10        71.1298   62.0340   44.8345 Y1         2 LUT     -0.208611
    149 C11        71.9690   61.9019   43.6260 Y2         2 LUT      0.030784
    150 C12        72.9032   62.8634   43.2274 Y3         2 LUT     -0.220316
    151 C13        73.8230   62.7909   42.1726 Y4         2 LUT      0.215937
    152 C14        74.9840   63.5794   42.3502 Y5         2 LUT     -0.185793
    153 C15        76.1545   63.5645   41.5716 Y6         2 LUT     -0.057835
    154 C16        69.2461   59.0707   49.6270 Y7         2 LUT     -0.405615
    155 C17        69.4104   61.2922   51.0527 Y7         2 LUT     -0.405615
    156 C18        66.7183   62.7536   47.3967 Y9         2 LUT     -0.369639
    157 C19        69.6121   60.0559   44.4784 W1         2 LUT     -0.333362
    158 C20        73.8013   61.5497   41.2326 W2         2 LUT     -0.323439
    159 C21        87.6643   64.8425   35.8811 Z1         2 LUT      0.406104
    160 C22        88.4542   63.9953   34.7723 Z2         2 LUT     -0.404965
    161 C23        88.6954   64.7170   33.4439 Z3         2 LUT      0.391255
    162 O23        89.0463   63.7165   32.4806 S1         2 LUT     -0.528210
    163 C24        87.3437   65.3937   33.0324 W6         2 LUT     -0.258361
    164 C25        86.2755   65.6895   33.8532 Z5         2 LUT      0.133546
    165 C26        86.2568   65.2210   35.2979 W8         2 LUT     -0.147008
    166 C27        85.3041   65.9646   36.2218 Z7         2 LUT      0.023843
    167 C28        84.1955   65.5175   36.8903 Z8         2 LUT     -0.216987
    168 C29        83.5828   66.0092   38.1497 Z9         2 LUT      0.206524
    169 C30        82.4016   65.4886   38.5881 Y1         2 LUT     -0.215556
    170 C31        81.6168   65.7295   39.7913 Y2         2 LUT      0.025142
    171 C32        80.4635   65.0462   40.0698 Y3         2 LUT     -0.212209
    172 C33        79.6365   65.0804   41.2862 Y4         2 LUT      0.240937
    173 C34        78.5266   64.2991   41.1558 Y5         2 LUT     -0.218862
    174 C35        77.3181   64.2572   41.9719 Y6         2 LUT     -0.023547
    175 C36        88.6123   66.0021   36.2780 Y7         2 LUT     -0.393485
    176 C37        87.4360   63.9448   37.1916 Y7         2 LUT     -0.393485
    177 C38        85.0823   66.5979   33.2882 Y9         2 LUT     -0.387526
    178 C39        84.3254   66.9884   39.0224 W1         2 LUT     -0.322618
    179 C40        79.6486   66.4199   41.9765 W2         2 LUT     -0.358472
    180 H403       78.7659   67.0198   41.7927 R7         2 LUT      0.097720
    181 H402       79.6356   66.3185   43.0574 R7         2 LUT      0.097720
    182 H401       80.5553   66.9704   41.7537 R7         2 LUT      0.097720
    183 H393       84.0157   68.0510   39.0532 R4         2 LUT      0.082505
    184 H392       84.3290   66.6339   40.0418 R4         2 LUT      0.082505
    185 H391       85.3525   66.9232   38.7252 R4         2 LUT      0.082505
    186 H383       84.5416   67.1002   34.0374 R1         2 LUT      0.104030
    187 H382       85.4195   67.3737   32.5959 R1         2 LUT      0.104030
    188 H381       84.4270   65.8601   32.8157 R1         2 LUT      0.104030
    189 H373       88.3255   63.6961   37.8149 T4         2 LUT      0.089537
    190 H372       86.8360   64.4130   37.9079 T4         2 LUT      0.089537
    191 H371       87.0252   62.9504   36.9348 T4         2 LUT      0.089537
    192 H363       88.1506   66.4947   37.2013 T4         2 LUT      0.089537
    193 H362       89.5842   65.6221   36.6632 T4         2 LUT      0.089537
    194 H361       88.7046   66.7276   35.4457 T4         2 LUT      0.089537
    195 H222       89.4343   63.8004   35.1344 U2         2 LUT      0.127376
    196 H221       87.8031   63.0926   34.6057 U2         2 LUT      0.127376
    197 H203       73.3546   61.7972   40.2346 R7         2 LUT      0.087068
    198 H202       74.7637   61.2148   40.9415 R7         2 LUT      0.087068
    199 H201       73.3976   60.5976   41.6516 R7         2 LUT      0.087068
    200 H193       70.3088   59.1916   44.5011 R4         2 LUT      0.089716
    201 H192       68.6059   59.7689   44.7926 R4         2 LUT      0.089716
    202 H191       69.6071   60.2108   43.3744 R4         2 LUT      0.089716
    203 H183       66.7915   62.1249   46.5530 R1         2 LUT      0.094572
    204 H182       65.6946   62.9042   47.5417 R1         2 LUT      0.094572
    205 H181       67.2331   63.6770   47.1629 R1         2 LUT      0.094572
    206 H173       70.4619   61.4694   50.8374 T4         2 LUT      0.093752
    207 H172       69.1125   62.3555   51.2567 T4         2 LUT      0.093752
    208 H171       69.3536   60.7576   51.9925 T4         2 LUT      0.093752
    209 H163       69.2527   58.4907   50.5290 T4         2 LUT      0.093752
    210 H162       68.6468   58.4545   48.9542 T4         2 LUT      0.093752
    211 H161       70.2851   59.1666   49.3099 T4         2 LUT      0.093752
    212 HO3        66.3605   61.5623   53.0141 Q1         2 LUT      0.300121
    213 H8         69.8973   62.4630   46.9099 U7         2 LUT      0.080784
    214 H7         68.5339   59.7588   47.1737 U6         2 LUT      0.042190
    215 H42        65.4190   62.4695   49.6234 U5         2 LUT      0.145166
    216 H41        66.7967   63.3336   50.2274 U5         2 LUT      0.145166
    217 H35        77.3224   64.8676   42.8919 T3         2 LUT      0.077919
    218 H34        78.4517   63.6363   40.3489 T2         2 LUT      0.073626
    219 H32        80.1429   64.3459   39.2767 T1         2 LUT      0.092510
    220 H31        81.9336   66.4575   40.4983 U9         2 LUT      0.070048
    221 H30        81.9751   64.8198   37.8970 U8         2 LUT      0.085442
    222 H3         65.3611   60.8566   51.1096 U3         2 LUT     -0.031596
    223 H28        83.7367   64.6236   36.5723 U7         2 LUT      0.084728
    224 H27        85.7981   66.9291   36.5173 U6         2 LUT      0.087291
    225 H26        85.7848   64.2313   35.2175 Q6         2 LUT      0.075325
    226 H24        87.2511   65.7409   32.0096 Q5         2 LUT      0.094482
    227 H23        89.6105   65.3686   33.4706 U3         2 LUT     -0.024869
    228 H22        66.6124   59.7498   49.8431 U2         2 LUT      0.127376
    229 H21        67.3084   59.3564   51.5354 U2         2 LUT      0.127376
    230 H15        76.1861   63.0725   40.6284 T3         2 LUT      0.093200
    231 H14        75.1541   64.1725   43.2403 T2         2 LUT      0.068865
    232 H12        73.0142   63.6375   43.9723 T1         2 LUT      0.095507
    233 H11        71.9306   61.0412   43.0186 U9         2 LUT      0.068930
    234 H10        71.3572   62.8661   45.4017 U8         2 LUT      0.083911
    235 H1         89.3402   64.1278   31.6632 Q1         2 LUT      0.297311
@<TRIPOS>BOND
    1     6     1 1
    2     7     2 1
    3     8     3 1
    4     9     4 1
    5    11     4 1
    6    12     6 1
    7    13     9 1
    8    16     9 1
    9    25     5 1
   10    25    16 1
   11    26    10 1
   12    26    17 1
   13    27    18 1
   14    28    14 1
   15    28    19 1
   16    29    12 1
   17    30    13 1
   18    31    24 1
   19    32     1 1
   20    32    25 1
   21    33    21 1
   22    33    26 1
   23    34    22 1
   24    34    27 1
   25    35    23 1
   26    35    28 1
   27    36    12 1
   28    36    24 1
   29    37    13 1
   30    37    15 1
   31    38    31 1
   32    39    20 1
   33    39    32 1
   34    40     2 1
   35    40    33 1
   36    41     3 1
   37    41    34 1
   38    42     4 1
   39    42    35 1
   40    43    38 1
   41    44     5 1
   42    44    17 1
   43    44    39 1
   44    45    10 1
   45    45    18 1
   46    45    40 1
   47    46    19 1
   48    46    41 1
   49    47    14 1
   50    47    16 1
   51    47    42 1
   52    48    38 1
   53    49    48 1
   54    50    49 1
   55    51    50 1
   56    52    51 1
   57    53    51 1
   58    54    53 1
   59    55    54 1
   60    56    55 1
   61    57    56 1
   62    58    56 1
   63    59    58 1
   64    60    59 1
   65    61    60 1
   66    62    61 1
   67    63    61 1
   68    64    27 1
   69    64    46 1
   70    65     5 1
   71    65    10 1
   72    65    64 1
   73    65    14 1
   74    66    23 1
   75    67    23 1
   76    68    23 1
   77    69    22 1
   78    70    22 1
   79    71    22 1
   80    72    21 1
   81    73    21 1
   82    74    21 1
   83    75    20 1
   84    76    20 1
   85    77    20 1
   86    78    15 1
   87    79    15 1
   88    80    15 1
   89    81     8 1
   90    82     8 1
   91    83     8 1
   92    84     7 1
   93    85     7 1
   94    86     6 1
   95    87     6 1
   96    88     3 1
   97    89     3 1
   98    90     1 1
   99    91     1 1
  100    92    63 1
  101    93    63 1
  102    94    63 1
  103    95    62 1
  104    96    62 1
  105    97    62 1
  106    98    60 1
  107    99    60 1
  108   100    59 1
  109   101    59 1
  110   102    58 1
  111   103    58 1
  112   104    57 1
  113   105    57 1
  114   106    57 1
  115   107    55 1
  116   108    55 1
  117   109    54 1
  118   110    54 1
  119   111    53 1
  120   112    53 1
  121   113    19 1
  122   114    18 1
  123   115    17 1
  124   116     9 1
  125   117     2 1
  126   118    52 1
  127   119    52 1
  128   120    52 1
  129   121    51 1
  130   122    50 1
  131   123    50 1
  132   124    49 1
  133   125    49 1
  134   126    48 1
  135   127    48 1
  136   128    43 1
  137   129    43 1
  138   130    43 1
  139   131    39 1
  140   132    32 1
  141   133    31 1
  142   134    61 1
  143   135    56 1
  144   136    24 1
  145   137    24 1
  146   139   138 1
  147   140   139 1
  148   141   140 1
  149   142   140 1
  150   143   142 1
  151   144   138 1
  152   144   143 1
  153   145   144 1
  154   146   145 1
  155   147   146 1
  156   148   147 1
  157   149   148 1
  158   150   149 1
  159   151   150 1
  160   152   151 1
  161   153   152 1
  162   154   138 1
  163   155   138 1
  164   156   143 1
  165   157   147 1
  166   158   151 1
  167   160   159 1
  168   161   160 1
  169   162   161 1
  170   163   161 1
  171   164   163 1
  172   165   159 1
  173   165   164 1
  174   166   165 1
  175   167   166 1
  176   168   167 1
  177   169   168 1
  178   170   169 1
  179   171   170 1
  180   172   171 1
  181   173   172 1
  182   174   153 1
  183   174   173 1
  184   175   159 1
  185   176   159 1
  186   177   164 1
  187   178   168 1
  188   179   172 1
  189   180   179 1
  190   181   179 1
  191   182   179 1
  192   183   178 1
  193   184   178 1
  194   185   178 1
  195   186   177 1
  196   187   177 1
  197   188   177 1
  198   189   176 1
  199   190   176 1
  200   191   176 1
  201   192   175 1
  202   193   175 1
  203   194   175 1
  204   195   160 1
  205   196   160 1
  206   197   158 1
  207   198   158 1
  208   199   158 1
  209   200   157 1
  210   201   157 1
  211   202   157 1
  212   203   156 1
  213   204   156 1
  214   205   156 1
  215   206   155 1
  216   207   155 1
  217   208   155 1
  218   209   154 1
  219   210   154 1
  220   211   154 1
  221   212   141 1
  222   213   146 1
  223   214   145 1
  224   215   142 1
  225   216   142 1
  226   217   174 1
  227   218   173 1
  228   219   171 1
  229   220   170 1
  230   221   169 1
  231   222   140 1
  232   223   167 1
  233   224   166 1
  234   225   165 1
  235   226   163 1
  236   227   161 1
  237   228   139 1
  238   229   139 1
  239   230   153 1
  240   231   152 1
  241   232   150 1
  242   233   149 1
  243   234   148 1
  244   235   162 1
  245   65    153 1
  246   65    174 1
@<TRIPOS>SUBSTRUCTURE
      1 CLA               1 ****               0 ****  **** 
      2 LUT             138 ****               0 ****  **** 
