@<TRIPOS>MOLECULE
Cpptraj generated mol2 file.
  235   246     2     0     0
SMALL
USER_CHARGES


@<TRIPOS>ATOM
      1 CAA        79.6083   59.1363   33.8165 a2         1 CLA     -0.055900
      2 CAB        78.9907   61.8025   42.9966 c8         1 CLA     -0.148500
      3 CAC        72.2011   57.7090   41.7523 a2         1 CLA     -0.012600
      4 CAD        75.2438   56.4903   33.9978 ck         1 CLA      0.398800
      5 NA         78.3332   58.9562   37.0240 ns         1 CLA     -0.225500
      6 CBA        80.9211   58.9642   32.9752 a2         1 CLA     -0.135000
      7 CBB        80.1362   61.8531   43.6366 c0         1 CLA     -0.395200
      8 CBC        72.2346   56.1922   41.8668 a3         1 CLA     -0.037700
      9 CBD        76.7745   56.9843   33.9588 a1         1 CLA     -0.053900
     10 NB         77.9258   60.3491   39.7667 nm         1 CLA     -0.295700
     11 OBD        74.6624   56.0301   33.0543 o2         1 CLA     -0.494600
     12 CGA        81.3593   57.6061   32.3666 c4         1 CLA      0.827000
     13 CGD        77.7158   55.8675   33.5658 c4         1 CLA      0.655300
     14 ND         75.4135   58.1184   37.1884 nm         1 CLA     -0.291600
     15 CED        77.8446   53.5062   33.3501 a3         1 CLA      0.005400
     16 CHA        77.0693   57.6171   35.3391 cs         1 CLA     -0.123800
     17 CHB        80.0026   60.3011   38.3389 aa         1 CLA     -0.291900
     18 CHC        76.4497   60.2571   41.6983 aa         1 CLA     -0.090400
     19 CHD        73.4706   57.8243   38.6861 aa         1 CLA     -0.052000
     20 CMA        81.7043   58.1051   36.6541 a3         1 CLA     -0.230700
     21 CMB        81.2088   62.0735   40.6153 a3         1 CLA     -0.180800
     22 CMC        74.0437   59.5164   43.5758 a3         1 CLA     -0.134000
     23 CMD        72.2000   56.6330   35.7516 a3         1 CLA     -0.141100
     24 C1         82.1249   55.3931   32.8834 a2         1 CLA      0.023000
     25 C1A        78.2485   58.2235   35.8806 ac         1 CLA     -0.015100
     26 C1B        79.2473   60.6809   39.4984 cr         1 CLA      0.054700
     27 C1C        75.3059   59.5010   41.2561 cn         1 CLA     -0.005600
     28 C1D        74.0643   57.7799   37.3678 ap         1 CLA     -0.047300
     29 O1A        81.2092   57.4030   31.1597 o2         1 CLA     -0.610800
     30 O1D        78.8264   56.0122   33.0308 o2         1 CLA     -0.558200
     31 C2         83.1401   54.8728   33.8467 c8         1 CLA     -0.325100
     32 C2A        79.6026   58.2993   35.1167 a1         1 CLA      0.098600
     33 C2B        79.8572   61.4266   40.5675 cb         1 CLA      0.088500
     34 C2C        74.2614   59.0920   42.1078 cb         1 CLA      0.053700
     35 C2D        73.5505   57.1263   36.0994 cb         1 CLA      0.058900
     36 O2A        81.8085   56.7627   33.2932 o1         1 CLA     -0.437200
     37 O2D        77.1515   54.6637   33.7704 o1         1 CLA     -0.357600
     38 C3         84.3155   54.3445   33.5012 c5         1 CLA      0.031200
     39 C3A        80.4861   58.9688   36.2076 a1         1 CLA      0.166800
     40 C3B        78.8434   61.4156   41.5825 cb         1 CLA      0.035000
     41 C3C        73.5036   58.3155   41.2182 cb         1 CLA     -0.089900
     42 C3D        74.7472   56.9978   35.2995 cb         1 CLA     -0.035900
     43 C4         84.5099   52.8966   33.2637 a3         1 CLA     -0.053300
     44 C4A        79.5665   59.4678   37.2490 ac         1 CLA      0.001800
     45 C4B        77.6205   60.6955   41.0387 cn         1 CLA     -0.020900
     46 C4C        74.0641   58.3059   39.8798 cr         1 CLA     -0.044400
     47 C4D        75.8329   57.6259   35.9799 c6         1 CLA     -0.046000
     48 C5         85.5709   55.2000   33.4276 a2         1 CLA     -0.070400
     49 C6         85.6548   56.5696   34.1534 a2         1 CLA      0.043900
     50 C7         85.6314   56.5311   35.6626 a2         1 CLA     -0.150000
     51 C8         85.6459   57.8538   36.4189 a1         1 CLA      0.064200
     52 C9         86.8405   58.8439   36.0757 a3         1 CLA     -0.259300
     53 C10        85.5052   57.5986   37.9360 a2         1 CLA     -0.071900
     54 C11        85.3109   58.7720   38.9182 a2         1 CLA      0.014500
     55 C12        84.8975   58.3958   40.2491 a2         1 CLA     -0.112100
     56 C13        84.8023   59.5053   41.3385 a1         1 CLA      0.089200
     57 C14        86.1451   60.3230   41.5155 a3         1 CLA     -0.239100
     58 C15        84.2841   58.9384   42.6710 a2         1 CLA     -0.102200
     59 C16        82.9548   58.2435   42.5794 a2         1 CLA      0.023900
     60 C17        82.4521   57.8964   43.9894 a2         1 CLA     -0.105700
     61 C18        83.3086   57.0140   44.8760 a1         1 CLA      0.206800
     62 C19        82.6206   56.5769   46.1637 a3         1 CLA     -0.280100
     63 C20        83.9695   55.7443   44.1955 a3         1 CLA     -0.280100
     64 NC         75.2206   58.9966   39.9402 nx         1 CLA     -0.309200
     65 MG         76.7468   59.1845   38.4768 mg         1 CLA      0.895000
     66 HMD3       72.2423   55.5890   36.0529 dc         1 CLA      0.064300
     67 HMD2       71.4427   57.2393   36.2243 dc         1 CLA      0.064300
     68 HMD1       72.1670   56.5236   34.6692 dc         1 CLA      0.064300
     69 HMC3       72.9689   59.5923   43.7381 dc         1 CLA      0.052100
     70 HMC2       74.5031   58.8755   44.2874 dc         1 CLA      0.052100
     71 HMC1       74.3751   60.5923   43.7912 dc         1 CLA      0.052100
     72 HMB3       81.9703   61.3276   40.6759 dc         1 CLA      0.063600
     73 HMB2       81.3268   62.6885   39.7201 dc         1 CLA      0.063600
     74 HMB1       81.3393   62.7199   41.4473 dc         1 CLA      0.063600
     75 HMA3       82.4668   57.8969   35.8766 dc         1 CLA      0.058300
     76 HMA2       82.2304   58.5356   37.4619 dc         1 CLA      0.058300
     77 HMA1       81.4010   57.1887   37.1257 dc         1 CLA      0.058300
     78 HED3       78.8058   53.4062   33.8767 dc         1 CLA      0.079300
     79 HED2       77.2175   52.7009   33.5838 dc         1 CLA      0.079300
     80 HED1       77.9773   53.4019   32.2428 dc         1 CLA      0.079300
     81 HBC3       71.2809   55.7932   42.2076 dc         1 CLA      0.016300
     82 HBC2       72.5211   55.8331   40.8990 dc         1 CLA      0.016300
     83 HBC1       72.9753   55.8632   42.5790 dc         1 CLA      0.016300
     84 HBB2       80.1458   62.1214   44.7135 da         1 CLA      0.183000
     85 HBB1       81.0945   61.6514   43.2078 da         1 CLA      0.183000
     86 HBA2       80.8888   59.6699   32.1273 dc         1 CLA      0.029400
     87 HBA1       81.7622   59.2122   33.6270 dc         1 CLA      0.029400
     88 HAC2       72.0215   58.0748   42.7846 dc         1 CLA      0.029300
     89 HAC1       71.3770   58.0130   41.1138 dc         1 CLA      0.029300
     90 HAA2       78.8249   58.6924   33.1539 dc         1 CLA      0.028700
     91 HAA1       79.3721   60.1956   33.8979 dc         1 CLA      0.028700
     92 H203       84.2417   55.0312   44.9141 dc         1 CLA      0.065600
     93 H202       83.3388   55.1591   43.5316 dc         1 CLA      0.065600
     94 H201       84.8543   55.9928   43.6328 dc         1 CLA      0.065600
     95 H193       82.1320   55.5932   46.1137 dc         1 CLA      0.065600
     96 H192       83.3050   56.6147   47.0126 dc         1 CLA      0.065600
     97 H191       81.8433   57.2505   46.3809 dc         1 CLA      0.065600
     98 H172       82.3461   58.8062   44.6242 dc         1 CLA      0.027600
     99 H171       81.4307   57.4622   43.8936 dc         1 CLA      0.027600
    100 H162       82.2204   58.8823   42.0652 dc         1 CLA      0.002900
    101 H161       83.0297   57.3141   42.0322 dc         1 CLA      0.002900
    102 H152       85.0920   58.1920   42.9532 dc         1 CLA      0.029100
    103 H151       84.2908   59.6991   43.5034 dc         1 CLA      0.029100
    104 H143       86.3885   60.8156   40.5695 dc         1 CLA      0.063600
    105 H142       86.0637   61.0840   42.2828 dc         1 CLA      0.063600
    106 H141       86.9430   59.6509   41.7438 dc         1 CLA      0.063600
    107 H122       83.9974   57.7748   40.1419 dc         1 CLA      0.032500
    108 H121       85.6526   57.7434   40.6766 dc         1 CLA      0.032500
    109 H112       86.1773   59.3464   38.9575 dc         1 CLA      0.006600
    110 H111       84.5981   59.2872   38.3822 dc         1 CLA      0.006600
    111 H102       84.5590   56.9936   38.1789 dc         1 CLA      0.024100
    112 H101       86.3528   57.1450   38.3168 dc         1 CLA      0.024100
    113 HHD        72.4926   57.4360   38.7861 da         1 CLA      0.174300
    114 HHC        76.5166   60.6651   42.7181 da         1 CLA      0.136800
    115 HHB        81.0520   60.6045   38.4001 da         1 CLA      0.138300
    116 HBD        76.7656   57.8354   33.2675 dc         1 CLA      0.107700
    117 HAB        77.9844   62.0371   43.4719 da         1 CLA      0.155200
    118 H93        87.7381   58.2404   36.0395 dc         1 CLA      0.069500
    119 H92        86.5996   59.2287   35.0362 dc         1 CLA      0.069500
    120 H91        86.9432   59.6715   36.7908 dc         1 CLA      0.069500
    121 H8         84.8141   58.5386   36.0213 dc         1 CLA      0.029300
    122 H72        84.6574   56.0923   35.9458 dc         1 CLA      0.044400
    123 H71        86.3960   55.9006   36.1012 dc         1 CLA      0.044400
    124 H62        86.5745   56.9805   33.8863 dc         1 CLA      0.015600
    125 H61        84.8534   57.2504   33.7897 dc         1 CLA      0.015600
    126 H52        86.4024   54.6726   33.7912 dc         1 CLA      0.033200
    127 H51        85.7729   55.4758   32.3948 dc         1 CLA      0.033200
    128 H43        85.1193   52.3893   34.0087 dc         1 CLA      0.037000
    129 H42        83.5731   52.2552   33.1239 dc         1 CLA      0.037000
    130 H41        85.0533   52.7716   32.3525 dc         1 CLA      0.037000
    131 H3A        80.9338   59.8507   35.7224 dc         1 CLA      0.041100
    132 H2A        79.9197   57.2827   34.9886 dc         1 CLA      0.083100
    133 H2         82.9014   54.8408   34.9335 da         1 CLA      0.180900
    134 H18        84.2304   57.5704   45.2144 dc         1 CLA     -0.003900
    135 H13        84.0321   60.2382   41.0725 dc         1 CLA      0.019700
    136 H12        81.1981   54.8467   33.0860 dc         1 CLA      0.120400
    137 H11        82.4726   55.3003   31.8734 dc         1 CLA      0.120400
    138 C1         69.3217   61.3265   48.7612 Z1         2 LUT      0.509236
    139 C2         69.0356   62.2018   50.0020 Z2         2 LUT     -0.434695
    140 C3         67.5534   62.5195   50.2256 Z3         2 LUT      0.437453
    141 O3         67.4195   63.0608   51.5456 S1         2 LUT     -0.547129
    142 C4         67.1169   63.3828   48.9596 Z4         2 LUT     -0.468603
    143 C5         67.5665   62.8447   47.6268 Z5         2 LUT      0.279246
    144 C6         68.5475   61.9473   47.5188 Z6         2 LUT     -0.305473
    145 C7         69.2393   61.6730   46.1977 Z7         2 LUT      0.069402
    146 C8         70.2600   62.2597   45.5474 Z8         2 LUT     -0.191631
    147 C9         70.8977   61.9330   44.2598 Z9         2 LUT      0.196698
    148 C10        71.9370   62.7395   43.8483 Y1         2 LUT     -0.208611
    149 C11        72.6924   62.5671   42.6815 Y2         2 LUT      0.030784
    150 C12        73.8888   63.1436   42.5327 Y3         2 LUT     -0.220316
    151 C13        74.6864   63.2210   41.3545 Y4         2 LUT      0.215937
    152 C14        75.8075   63.9311   41.4941 Y5         2 LUT     -0.185793
    153 C15        76.7932   64.2959   40.5236 Y6         2 LUT     -0.057835
    154 C16        68.7238   59.9201   49.2083 Y7         2 LUT     -0.405615
    155 C17        70.8084   61.1083   48.5083 Y7         2 LUT     -0.405615
    156 C18        67.0458   63.8538   46.5530 Y9         2 LUT     -0.369639
    157 C19        70.3471   60.7788   43.4318 W1         2 LUT     -0.333362
    158 C20        74.0467   62.9022   40.0416 W2         2 LUT     -0.323439
    159 C21        88.0219   66.1737   34.6196 Z1         2 LUT      0.406104
    160 C22        88.9084   65.8790   33.3931 Z2         2 LUT     -0.404965
    161 C23        88.9300   66.9129   32.3066 Z3         2 LUT      0.391255
    162 O23        89.6442   66.3398   31.2156 S1         2 LUT     -0.528210
    163 C24        87.6040   67.5419   32.0599 W6         2 LUT     -0.258361
    164 C25        86.5429   67.4486   32.8854 Z5         2 LUT      0.133546
    165 C26        86.5357   66.6229   34.1145 W8         2 LUT     -0.147008
    166 C27        85.5999   67.1267   35.2563 Z7         2 LUT      0.023843
    167 C28        84.8772   66.3697   36.0559 Z8         2 LUT     -0.216987
    168 C29        84.1981   66.8152   37.2611 Z9         2 LUT      0.206524
    169 C30        83.1381   66.1348   37.6493 Y1         2 LUT     -0.215556
    170 C31        82.3658   66.2492   38.8373 Y2         2 LUT      0.025142
    171 C32        81.2575   65.5639   39.0799 Y3         2 LUT     -0.212209
    172 C33        80.2663   65.7612   40.0338 Y4         2 LUT      0.240937
    173 C34        79.0350   65.1816   39.8001 Y5         2 LUT     -0.218862
    174 C35        77.9446   65.0471   40.8229 Y6         2 LUT     -0.023547
    175 C36        88.7491   67.3352   35.3914 Y7         2 LUT     -0.393485
    176 C37        87.9010   65.0052   35.6024 Y7         2 LUT     -0.393485
    177 C38        85.2830   68.1581   32.4657 Y9         2 LUT     -0.387526
    178 C39        84.7613   67.9407   38.1930 W1         2 LUT     -0.322618
    179 C40        80.6641   66.6029   41.2504 W2         2 LUT     -0.358472
    180 H403       80.1085   66.1925   42.0836 R7         2 LUT      0.097720
    181 H402       81.7380   66.5744   41.3949 R7         2 LUT      0.097720
    182 H401       80.3430   67.6170   41.0225 R7         2 LUT      0.097720
    183 H393       85.7328   68.2835   37.7969 R4         2 LUT      0.082505
    184 H392       84.0967   68.8554   38.0484 R4         2 LUT      0.082505
    185 H391       84.8560   67.8145   39.2939 R4         2 LUT      0.082505
    186 H383       85.4879   68.8850   31.6730 R1         2 LUT      0.104030
    187 H382       84.5611   67.4106   32.0891 R1         2 LUT      0.104030
    188 H381       84.7958   68.8710   33.1641 R1         2 LUT      0.104030
    189 H373       88.7613   64.8324   36.2124 T4         2 LUT      0.089537
    190 H372       87.0337   65.1578   36.2061 T4         2 LUT      0.089537
    191 H371       87.7745   64.0776   35.1180 T4         2 LUT      0.089537
    192 H363       87.9773   67.8142   36.0761 T4         2 LUT      0.089537
    193 H362       89.6999   67.1525   35.9688 T4         2 LUT      0.089537
    194 H361       89.0492   68.1023   34.7093 T4         2 LUT      0.089537
    195 H222       89.9050   65.6243   33.7088 U2         2 LUT      0.127376
    196 H221       88.4671   64.9565   32.9363 U2         2 LUT      0.127376
    197 H203       73.8472   61.8383   40.0306 R7         2 LUT      0.087068
    198 H202       73.1603   63.5401   39.8819 R7         2 LUT      0.087068
    199 H201       74.6622   63.1393   39.1802 R7         2 LUT      0.087068
    200 H193       70.3835   59.8451   43.9106 R4         2 LUT      0.089716
    201 H192       69.3595   60.9252   43.0764 R4         2 LUT      0.089716
    202 H191       70.9273   60.4292   42.5630 R4         2 LUT      0.089716
    203 H183       65.9960   63.7496   46.3362 R1         2 LUT      0.094572
    204 H182       67.1352   64.8576   46.9206 R1         2 LUT      0.094572
    205 H181       67.6423   63.7402   45.6812 R1         2 LUT      0.094572
    206 H173       71.2730   62.0664   48.3222 T4         2 LUT      0.093752
    207 H172       71.3172   60.6934   49.3715 T4         2 LUT      0.093752
    208 H171       71.0519   60.5969   47.5881 T4         2 LUT      0.093752
    209 H163       67.6794   59.8917   49.3161 T4         2 LUT      0.093752
    210 H162       68.7999   59.2268   48.3827 T4         2 LUT      0.093752
    211 H161       69.2052   59.4694   50.0631 T4         2 LUT      0.093752
    212 HO3        67.3335   62.3571   52.2105 Q1         2 LUT      0.300121
    213 H8         70.6095   63.1955   45.9435 U7         2 LUT      0.080784
    214 H7         68.8725   60.7921   45.6621 U6         2 LUT      0.042190
    215 H42        66.0829   63.6344   48.9159 U5         2 LUT      0.145166
    216 H41        67.5724   64.3518   49.2671 U5         2 LUT      0.145166
    217 H35        78.0854   65.4682   41.8204 T3         2 LUT      0.077919
    218 H34        78.9078   64.7277   38.8055 T2         2 LUT      0.073626
    219 H32        81.0423   64.7611   38.4262 T1         2 LUT      0.092510
    220 H31        82.3903   67.1415   39.3862 U9         2 LUT      0.070048
    221 H30        82.9564   65.2566   37.0639 U8         2 LUT      0.085442
    222 H3         66.9355   61.6126   50.1338 U3         2 LUT     -0.031596
    223 H28        84.6369   65.3529   35.6934 U7         2 LUT      0.084728
    224 H27        85.7445   68.0865   35.6007 U6         2 LUT      0.087291
    225 H26        86.1042   65.6895   33.7634 Q6         2 LUT      0.075325
    226 H24        87.6029   68.2158   31.1971 Q5         2 LUT      0.094482
    227 H23        89.7848   67.5810   32.5855 U3         2 LUT     -0.024869
    228 H22        69.3857   61.6597   50.8753 U2         2 LUT      0.127376
    229 H21        69.7431   63.0226   50.1541 U2         2 LUT      0.127376
    230 H15        76.8092   63.8924   39.5256 T3         2 LUT      0.093200
    231 H14        76.0943   64.2780   42.4730 T2         2 LUT      0.068865
    232 H12        74.2016   63.6202   43.4471 T1         2 LUT      0.095507
    233 H11        72.3411   61.9630   41.8787 U9         2 LUT      0.068930
    234 H10        72.3565   63.4438   44.5091 U8         2 LUT      0.083911
    235 H1         89.1046   66.1933   30.4329 Q1         2 LUT      0.297311
@<TRIPOS>BOND
    1     6     1 1
    2     7     2 1
    3     8     3 1
    4     9     4 1
    5    11     4 1
    6    12     6 1
    7    13     9 1
    8    16     9 1
    9    25     5 1
   10    25    16 1
   11    26    10 1
   12    26    17 1
   13    27    18 1
   14    28    14 1
   15    28    19 1
   16    29    12 1
   17    30    13 1
   18    31    24 1
   19    32     1 1
   20    32    25 1
   21    33    21 1
   22    33    26 1
   23    34    22 1
   24    34    27 1
   25    35    23 1
   26    35    28 1
   27    36    12 1
   28    36    24 1
   29    37    13 1
   30    37    15 1
   31    38    31 1
   32    39    20 1
   33    39    32 1
   34    40     2 1
   35    40    33 1
   36    41     3 1
   37    41    34 1
   38    42     4 1
   39    42    35 1
   40    43    38 1
   41    44     5 1
   42    44    17 1
   43    44    39 1
   44    45    10 1
   45    45    18 1
   46    45    40 1
   47    46    19 1
   48    46    41 1
   49    47    14 1
   50    47    16 1
   51    47    42 1
   52    48    38 1
   53    49    48 1
   54    50    49 1
   55    51    50 1
   56    52    51 1
   57    53    51 1
   58    54    53 1
   59    55    54 1
   60    56    55 1
   61    57    56 1
   62    58    56 1
   63    59    58 1
   64    60    59 1
   65    61    60 1
   66    62    61 1
   67    63    61 1
   68    64    27 1
   69    64    46 1
   70    65     5 1
   71    65    10 1
   72    65    64 1
   73    65    14 1
   74    66    23 1
   75    67    23 1
   76    68    23 1
   77    69    22 1
   78    70    22 1
   79    71    22 1
   80    72    21 1
   81    73    21 1
   82    74    21 1
   83    75    20 1
   84    76    20 1
   85    77    20 1
   86    78    15 1
   87    79    15 1
   88    80    15 1
   89    81     8 1
   90    82     8 1
   91    83     8 1
   92    84     7 1
   93    85     7 1
   94    86     6 1
   95    87     6 1
   96    88     3 1
   97    89     3 1
   98    90     1 1
   99    91     1 1
  100    92    63 1
  101    93    63 1
  102    94    63 1
  103    95    62 1
  104    96    62 1
  105    97    62 1
  106    98    60 1
  107    99    60 1
  108   100    59 1
  109   101    59 1
  110   102    58 1
  111   103    58 1
  112   104    57 1
  113   105    57 1
  114   106    57 1
  115   107    55 1
  116   108    55 1
  117   109    54 1
  118   110    54 1
  119   111    53 1
  120   112    53 1
  121   113    19 1
  122   114    18 1
  123   115    17 1
  124   116     9 1
  125   117     2 1
  126   118    52 1
  127   119    52 1
  128   120    52 1
  129   121    51 1
  130   122    50 1
  131   123    50 1
  132   124    49 1
  133   125    49 1
  134   126    48 1
  135   127    48 1
  136   128    43 1
  137   129    43 1
  138   130    43 1
  139   131    39 1
  140   132    32 1
  141   133    31 1
  142   134    61 1
  143   135    56 1
  144   136    24 1
  145   137    24 1
  146   139   138 1
  147   140   139 1
  148   141   140 1
  149   142   140 1
  150   143   142 1
  151   144   138 1
  152   144   143 1
  153   145   144 1
  154   146   145 1
  155   147   146 1
  156   148   147 1
  157   149   148 1
  158   150   149 1
  159   151   150 1
  160   152   151 1
  161   153   152 1
  162   154   138 1
  163   155   138 1
  164   156   143 1
  165   157   147 1
  166   158   151 1
  167   160   159 1
  168   161   160 1
  169   162   161 1
  170   163   161 1
  171   164   163 1
  172   165   159 1
  173   165   164 1
  174   166   165 1
  175   167   166 1
  176   168   167 1
  177   169   168 1
  178   170   169 1
  179   171   170 1
  180   172   171 1
  181   173   172 1
  182   174   153 1
  183   174   173 1
  184   175   159 1
  185   176   159 1
  186   177   164 1
  187   178   168 1
  188   179   172 1
  189   180   179 1
  190   181   179 1
  191   182   179 1
  192   183   178 1
  193   184   178 1
  194   185   178 1
  195   186   177 1
  196   187   177 1
  197   188   177 1
  198   189   176 1
  199   190   176 1
  200   191   176 1
  201   192   175 1
  202   193   175 1
  203   194   175 1
  204   195   160 1
  205   196   160 1
  206   197   158 1
  207   198   158 1
  208   199   158 1
  209   200   157 1
  210   201   157 1
  211   202   157 1
  212   203   156 1
  213   204   156 1
  214   205   156 1
  215   206   155 1
  216   207   155 1
  217   208   155 1
  218   209   154 1
  219   210   154 1
  220   211   154 1
  221   212   141 1
  222   213   146 1
  223   214   145 1
  224   215   142 1
  225   216   142 1
  226   217   174 1
  227   218   173 1
  228   219   171 1
  229   220   170 1
  230   221   169 1
  231   222   140 1
  232   223   167 1
  233   224   166 1
  234   225   165 1
  235   226   163 1
  236   227   161 1
  237   228   139 1
  238   229   139 1
  239   230   153 1
  240   231   152 1
  241   232   150 1
  242   233   149 1
  243   234   148 1
  244   235   162 1
  245   65    153 1
  246   65    174 1
@<TRIPOS>SUBSTRUCTURE
      1 CLA               1 ****               0 ****  **** 
      2 LUT             138 ****               0 ****  **** 
