@<TRIPOS>MOLECULE
Cpptraj generated mol2 file.
  235   246     2     0     0
SMALL
USER_CHARGES


@<TRIPOS>ATOM
      1 CAA        79.5548   58.8853   33.4062 a2         1 CLA     -0.055900
      2 CAB        79.1593   62.6720   42.5760 c8         1 CLA     -0.148500
      3 CAC        72.6496   57.9909   41.7706 a2         1 CLA     -0.012600
      4 CAD        75.4102   56.1177   34.4914 ck         1 CLA      0.398800
      5 NA         78.5479   59.1463   36.9403 ns         1 CLA     -0.225500
      6 CBA        80.8079   58.8633   32.4964 a2         1 CLA     -0.135000
      7 CBB        80.3505   62.8862   43.2027 c0         1 CLA     -0.395200
      8 CBC        72.7527   56.4345   41.6766 a3         1 CLA     -0.037700
      9 CBD        76.9238   56.7005   34.1980 a1         1 CLA     -0.053900
     10 NB         78.1529   60.7681   39.4883 nm         1 CLA     -0.295700
     11 OBD        74.7606   55.4588   33.6513 o2         1 CLA     -0.494600
     12 CGA        81.2812   57.5414   31.9906 c4         1 CLA      0.827000
     13 CGD        77.9914   55.6336   33.8594 c4         1 CLA      0.655300
     14 ND         75.6719   58.2486   37.3724 nm         1 CLA     -0.291600
     15 CED        78.7339   53.4066   34.2801 a3         1 CLA      0.005400
     16 CHA        77.2762   57.6051   35.4651 cs         1 CLA     -0.123800
     17 CHB        80.0957   60.5901   38.0516 aa         1 CLA     -0.291900
     18 CHC        76.7376   60.9166   41.4719 aa         1 CLA     -0.090400
     19 CHD        73.7746   57.9563   38.9146 aa         1 CLA     -0.052000
     20 CMA        81.8324   58.6998   36.2943 a3         1 CLA     -0.230700
     21 CMB        81.3296   62.5944   40.1604 a3         1 CLA     -0.180800
     22 CMC        74.4570   60.1580   43.4879 a3         1 CLA     -0.134000
     23 CMD        72.6283   56.1657   36.6144 a3         1 CLA     -0.141100
     24 C1         82.0442   55.2841   32.9218 a2         1 CLA      0.023000
     25 C1A        78.4017   58.4253   35.7606 ac         1 CLA     -0.015100
     26 C1B        79.4322   61.1187   39.2088 cr         1 CLA      0.054700
     27 C1C        75.6979   60.1018   41.1446 cn         1 CLA     -0.005600
     28 C1D        74.4193   57.7633   37.6471 ap         1 CLA     -0.047300
     29 O1A        81.3295   57.2423   30.8259 o2         1 CLA     -0.610800
     30 O1D        78.8888   55.7202   33.0368 o2         1 CLA     -0.558200
     31 C2         82.7806   54.9808   34.1678 c8         1 CLA     -0.325100
     32 C2A        79.7160   58.4957   34.8881 a1         1 CLA      0.098600
     33 C2B        79.9920   62.0169   40.1937 cb         1 CLA      0.088500
     34 C2C        74.6417   59.6710   42.0405 cb         1 CLA      0.053700
     35 C2D        73.9315   56.8988   36.6358 cb         1 CLA      0.058900
     36 O2A        81.7118   56.7293   33.0104 o1         1 CLA     -0.437200
     37 O2D        77.8468   54.5243   34.6437 o1         1 CLA     -0.357600
     38 C3         83.5558   53.9251   34.4955 c5         1 CLA      0.031200
     39 C3A        80.5733   59.3942   35.7979 a1         1 CLA      0.166800
     40 C3B        79.0244   61.9900   41.2651 cb         1 CLA      0.035000
     41 C3C        73.9042   58.7614   41.3272 cb         1 CLA     -0.089900
     42 C3D        75.0203   56.7737   35.7303 cb         1 CLA     -0.035900
     43 C4         83.0122   52.6645   35.1629 a3         1 CLA     -0.053300
     44 C4A        79.6914   59.7870   37.0018 ac         1 CLA      0.001800
     45 C4B        77.9048   61.2398   40.7773 cn         1 CLA     -0.020900
     46 C4C        74.4126   58.6725   39.9981 cr         1 CLA     -0.044400
     47 C4D        76.0973   57.6138   36.1972 c6         1 CLA     -0.046000
     48 C5         84.9740   53.8835   33.9853 a2         1 CLA     -0.070400
     49 C6         85.8541   54.9555   34.6085 a2         1 CLA      0.043900
     50 C7         86.1121   54.9469   36.1332 a2         1 CLA     -0.150000
     51 C8         86.6945   56.2645   36.6084 a1         1 CLA      0.064200
     52 C9         88.0658   56.5705   35.8241 a3         1 CLA     -0.259300
     53 C10        86.9626   56.1894   38.1665 a2         1 CLA     -0.071900
     54 C11        87.1842   57.5161   38.9637 a2         1 CLA      0.014500
     55 C12        87.4193   57.2475   40.5052 a2         1 CLA     -0.112100
     56 C13        87.0651   58.4804   41.4581 a1         1 CLA      0.089200
     57 C14        88.1063   59.6962   41.3218 a3         1 CLA     -0.239100
     58 C15        86.9234   58.0063   42.9667 a2         1 CLA     -0.102200
     59 C16        86.3707   59.0058   43.9620 a2         1 CLA      0.023900
     60 C17        86.4896   58.4222   45.4460 a2         1 CLA     -0.105700
     61 C18        86.1530   59.4743   46.5379 a1         1 CLA      0.206800
     62 C19        84.8487   60.2634   46.3012 a3         1 CLA     -0.280100
     63 C20        86.0841   58.6665   47.8293 a3         1 CLA     -0.280100
     64 NC         75.5894   59.4329   39.9054 nx         1 CLA     -0.309200
     65 MG         76.9018   59.5852   38.3524 mg         1 CLA      0.895000
     66 HMD3       72.5423   55.5851   35.6311 dc         1 CLA      0.064300
     67 HMD2       72.4981   55.5851   37.5533 dc         1 CLA      0.064300
     68 HMD1       71.7888   56.8553   36.5850 dc         1 CLA      0.064300
     69 HMC3       73.3788   60.2498   43.7516 dc         1 CLA      0.052100
     70 HMC2       74.9551   59.4819   44.1303 dc         1 CLA      0.052100
     71 HMC1       74.9484   61.1609   43.5919 dc         1 CLA      0.052100
     72 HMB3       82.1360   62.0139   40.7006 dc         1 CLA      0.063600
     73 HMB2       81.6311   62.6023   39.1084 dc         1 CLA      0.063600
     74 HMB1       81.3074   63.6080   40.5935 dc         1 CLA      0.063600
     75 HMA3       81.4870   57.8438   36.8279 dc         1 CLA      0.058300
     76 HMA2       82.4410   58.3763   35.4364 dc         1 CLA      0.058300
     77 HMA1       82.4283   59.2681   36.9688 dc         1 CLA      0.058300
     78 HED3       78.4114   52.4832   34.6644 dc         1 CLA      0.079300
     79 HED2       78.9592   53.2930   33.1969 dc         1 CLA      0.079300
     80 HED1       79.6354   53.6828   34.8045 dc         1 CLA      0.079300
     81 HBC3       72.7709   56.1506   40.6301 dc         1 CLA      0.016300
     82 HBC2       73.6773   56.0120   42.0810 dc         1 CLA      0.016300
     83 HBC1       71.9214   55.8640   42.1248 dc         1 CLA      0.016300
     84 HBB2       80.4046   63.5956   44.0796 da         1 CLA      0.183000
     85 HBB1       81.3234   62.5455   42.9094 da         1 CLA      0.183000
     86 HBA2       80.4807   59.2941   31.5660 dc         1 CLA      0.029400
     87 HBA1       81.6506   59.4335   32.9239 dc         1 CLA      0.029400
     88 HAC2       72.4132   58.2100   42.8150 dc         1 CLA      0.029300
     89 HAC1       71.8315   58.2178   41.1488 dc         1 CLA      0.029300
     90 HAA2       78.7012   58.3080   33.0116 dc         1 CLA      0.028700
     91 HAA1       79.2925   59.9054   33.4432 dc         1 CLA      0.028700
     92 H203       86.8631   57.9299   47.9642 dc         1 CLA      0.065600
     93 H202       86.1858   59.4462   48.5719 dc         1 CLA      0.065600
     94 H201       85.1958   58.0998   47.9624 dc         1 CLA      0.065600
     95 H193       84.0411   59.5563   46.0720 dc         1 CLA      0.065600
     96 H192       84.5856   60.9339   47.1583 dc         1 CLA      0.065600
     97 H191       84.9990   60.9776   45.5511 dc         1 CLA      0.065600
     98 H172       85.8566   57.5457   45.5370 dc         1 CLA      0.027600
     99 H171       87.5847   58.2248   45.6903 dc         1 CLA      0.027600
    100 H162       86.9580   59.9296   43.8319 dc         1 CLA      0.002900
    101 H161       85.3258   59.2642   43.6548 dc         1 CLA      0.002900
    102 H152       86.2059   57.2054   43.0199 dc         1 CLA      0.029100
    103 H151       87.9006   57.4770   43.2195 dc         1 CLA      0.029100
    104 H143       88.3591   60.0028   40.3037 dc         1 CLA      0.063600
    105 H142       87.7651   60.6014   41.8606 dc         1 CLA      0.063600
    106 H141       89.0140   59.4393   41.8183 dc         1 CLA      0.063600
    107 H122       86.7639   56.4406   40.7318 dc         1 CLA      0.032500
    108 H121       88.4605   56.9307   40.6771 dc         1 CLA      0.032500
    109 H112       88.0783   58.0406   38.5936 dc         1 CLA      0.006600
    110 H111       86.3107   58.1577   38.9263 dc         1 CLA      0.006600
    111 H102       86.1556   55.6286   38.6006 dc         1 CLA      0.024100
    112 H101       87.8084   55.5679   38.3387 dc         1 CLA      0.024100
    113 HHD        72.7506   57.5910   39.0645 da         1 CLA      0.174300
    114 HHC        76.6609   61.4129   42.4256 da         1 CLA      0.136800
    115 HHB        81.1236   60.9639   37.9297 da         1 CLA      0.138300
    116 HBD        76.8326   57.4148   33.3641 dc         1 CLA      0.107700
    117 HAB        78.2151   63.0814   42.9632 da         1 CLA      0.155200
    118 H93        88.8265   55.8081   35.9178 dc         1 CLA      0.069500
    119 H92        87.7891   56.7081   34.7837 dc         1 CLA      0.069500
    120 H91        88.5062   57.5296   36.1310 dc         1 CLA      0.069500
    121 H8         85.9724   57.0181   36.3872 dc         1 CLA      0.029300
    122 H72        85.1863   54.7636   36.6588 dc         1 CLA      0.044400
    123 H71        86.8104   54.1208   36.2756 dc         1 CLA      0.044400
    124 H62        86.8729   54.7308   34.1517 dc         1 CLA      0.015600
    125 H61        85.4611   55.9345   34.2683 dc         1 CLA      0.015600
    126 H52        85.2973   52.8696   34.1916 dc         1 CLA      0.033200
    127 H51        85.0554   53.9986   32.9005 dc         1 CLA      0.033200
    128 H43        81.9017   52.6587   35.0186 dc         1 CLA      0.037000
    129 H42        83.2476   51.6816   34.8130 dc         1 CLA      0.037000
    130 H41        83.1633   52.8763   36.2234 dc         1 CLA      0.037000
    131 H3A        80.9478   60.2729   35.2909 dc         1 CLA      0.041100
    132 H2A        80.0556   57.4615   34.9207 dc         1 CLA      0.083100
    133 H2         82.6508   55.7174   34.8746 da         1 CLA      0.180900
    134 H18        86.9565   60.1965   46.6235 dc         1 CLA     -0.003900
    135 H13        86.0915   58.8027   41.2141 dc         1 CLA      0.019700
    136 H12        81.2240   54.5575   32.8799 dc         1 CLA      0.120400
    137 H11        82.7041   55.1430   32.0771 dc         1 CLA      0.120400
    138 C1         69.2021   61.2928   49.2297 Z1         2 LUT      0.509236
    139 C2         67.6934   61.2053   49.7355 Z2         2 LUT     -0.434695
    140 C3         67.1468   62.4949   50.4083 Z3         2 LUT      0.437453
    141 O3         67.7136   62.7178   51.6716 S1         2 LUT     -0.547129
    142 C4         67.3555   63.6897   49.4442 Z4         2 LUT     -0.468603
    143 C5         68.3610   63.5096   48.2681 Z5         2 LUT      0.279246
    144 C6         69.1601   62.4034   48.0654 Z6         2 LUT     -0.305473
    145 C7         69.6869   62.0591   46.7040 Z7         2 LUT      0.069402
    146 C8         70.4836   62.8085   45.9076 Z8         2 LUT     -0.191631
    147 C9         70.8984   62.5051   44.5517 Z9         2 LUT      0.196698
    148 C10        71.8832   63.2906   44.0240 Y1         2 LUT     -0.208611
    149 C11        72.6038   62.9699   42.8165 Y2         2 LUT      0.030784
    150 C12        73.6429   63.7851   42.4434 Y3         2 LUT     -0.220316
    151 C13        74.4634   63.7747   41.2083 Y4         2 LUT      0.215937
    152 C14        75.6177   64.5311   41.3185 Y5         2 LUT     -0.185793
    153 C15        76.8019   64.5428   40.4755 Y6         2 LUT     -0.057835
    154 C16        69.6186   59.8770   48.6815 Y7         2 LUT     -0.405615
    155 C17        70.1111   61.7139   50.3729 Y7         2 LUT     -0.405615
    156 C18        68.0139   64.4421   47.1417 Y9         2 LUT     -0.369639
    157 C19        70.4368   61.2139   43.8931 W1         2 LUT     -0.333362
    158 C20        74.0787   62.8811   40.0398 W2         2 LUT     -0.323439
    159 C21        87.9435   66.4337   34.1986 Z1         2 LUT      0.406104
    160 C22        88.5379   65.8019   32.8478 Z2         2 LUT     -0.404965
    161 C23        88.4966   66.6823   31.6425 Z3         2 LUT      0.391255
    162 O23        89.0525   65.8858   30.5544 S1         2 LUT     -0.528210
    163 C24        87.1071   67.2619   31.4937 W6         2 LUT     -0.258361
    164 C25        86.2729   67.4895   32.5572 Z5         2 LUT      0.133546
    165 C26        86.4300   66.8870   33.9362 W8         2 LUT     -0.147008
    166 C27        85.8380   67.7202   35.0721 Z7         2 LUT      0.023843
    167 C28        84.6658   67.3996   35.7002 Z8         2 LUT     -0.216987
    168 C29        84.0102   67.5882   36.9530 Z9         2 LUT      0.206524
    169 C30        82.8699   66.9231   37.2506 Y1         2 LUT     -0.215556
    170 C31        82.0717   66.9689   38.4012 Y2         2 LUT      0.025142
    171 C32        80.9448   66.2794   38.5189 Y3         2 LUT     -0.212209
    172 C33        80.1214   66.2449   39.7202 Y4         2 LUT      0.240937
    173 C34        78.9229   65.5470   39.6478 Y5         2 LUT     -0.218862
    174 C35        77.8121   65.4241   40.6395 Y6         2 LUT     -0.023547
    175 C36        89.0015   67.5557   34.5745 Y7         2 LUT     -0.393485
    176 C37        88.0780   65.3505   35.2503 Y7         2 LUT     -0.393485
    177 C38        84.9263   68.2170   32.2909 Y9         2 LUT     -0.387526
    178 C39        84.7793   68.4175   38.0556 W1         2 LUT     -0.322618
    179 C40        80.4755   67.0655   40.9008 W2         2 LUT     -0.358472
    180 H403       80.0220   66.6046   41.8003 R7         2 LUT      0.097720
    181 H402       81.5127   67.0642   41.0698 R7         2 LUT      0.097720
    182 H401       80.0666   68.0527   40.8198 R7         2 LUT      0.097720
    183 H393       85.6743   68.8642   37.6220 R4         2 LUT      0.082505
    184 H392       84.1447   69.2283   38.4472 R4         2 LUT      0.082505
    185 H391       85.0510   67.8008   38.8917 R4         2 LUT      0.082505
    186 H383       84.7777   68.6281   31.3121 R1         2 LUT      0.104030
    187 H382       84.0750   67.5816   32.6241 R1         2 LUT      0.104030
    188 H381       84.8115   69.1527   32.8055 R1         2 LUT      0.104030
    189 H373       87.4586   64.5714   34.9070 T4         2 LUT      0.089537
    190 H372       89.0191   64.8979   35.1543 T4         2 LUT      0.089537
    191 H371       87.8284   65.5540   36.3364 T4         2 LUT      0.089537
    192 H363       88.9522   68.4208   33.8923 T4         2 LUT      0.089537
    193 H362       88.8857   68.0046   35.5641 T4         2 LUT      0.089537
    194 H361       89.9926   67.1384   34.7912 T4         2 LUT      0.089537
    195 H222       89.5426   65.3974   32.8852 U2         2 LUT      0.127376
    196 H221       87.8789   64.9723   32.6367 U2         2 LUT      0.127376
    197 H203       74.7003   62.9976   39.0841 R7         2 LUT      0.087068
    198 H202       74.1107   61.8221   40.3247 R7         2 LUT      0.087068
    199 H201       73.0094   62.9884   39.8200 R7         2 LUT      0.087068
    200 H193       69.4207   61.1453   44.1111 R4         2 LUT      0.089716
    201 H192       70.5340   61.2178   42.7645 R4         2 LUT      0.089716
    202 H191       70.8189   60.2633   44.3665 R4         2 LUT      0.089716
    203 H183       67.4568   63.8390   46.4027 R1         2 LUT      0.094572
    204 H182       67.3277   65.2355   47.3789 R1         2 LUT      0.094572
    205 H181       68.8943   64.8298   46.6758 R1         2 LUT      0.094572
    206 H173       69.9777   62.7064   50.7881 T4         2 LUT      0.093752
    207 H172       70.0438   60.9497   51.1047 T4         2 LUT      0.093752
    208 H171       71.1690   61.6914   50.0651 T4         2 LUT      0.093752
    209 H163       68.9324   59.5683   47.9072 T4         2 LUT      0.093752
    210 H162       70.6813   59.7234   48.3323 T4         2 LUT      0.093752
    211 H161       69.4900   59.0763   49.4441 T4         2 LUT      0.093752
    212 HO3        67.3915   62.0831   52.3329 Q1         2 LUT      0.300121
    213 H8         70.8148   63.7935   46.2814 U7         2 LUT      0.080784
    214 H7         69.2068   61.1437   46.2174 U6         2 LUT      0.042190
    215 H42        66.3287   63.8288   49.0038 U5         2 LUT      0.145166
    216 H41        67.5495   64.6090   50.0608 U5         2 LUT      0.145166
    217 H35        77.7222   65.9987   41.5671 T3         2 LUT      0.077919
    218 H34        78.7239   65.0535   38.7147 T2         2 LUT      0.073626
    219 H32        80.6754   65.7016   37.6114 T1         2 LUT      0.092510
    220 H31        82.4111   67.6629   39.2244 U9         2 LUT      0.070048
    221 H30        82.6041   66.1994   36.5099 U8         2 LUT      0.085442
    222 H3         65.9974   62.3745   50.5375 U3         2 LUT     -0.031596
    223 H28        84.1214   66.7018   35.0238 U7         2 LUT      0.084728
    224 H27        86.5642   68.3674   35.5942 U6         2 LUT      0.087291
    225 H26        85.8894   65.9420   33.9317 Q6         2 LUT      0.075325
    226 H24        86.9359   67.7433   30.5234 Q5         2 LUT      0.094482
    227 H23        89.1937   67.5025   31.8511 U3         2 LUT     -0.024869
    228 H22        67.0403   60.9853   48.9015 U2         2 LUT      0.127376
    229 H21        67.6179   60.3794   50.4018 U2         2 LUT      0.127376
    230 H15        76.7890   63.8574   39.6110 T3         2 LUT      0.093200
    231 H14        75.7045   65.1361   42.1962 T2         2 LUT      0.068865
    232 H12        73.9041   64.5610   43.1586 T1         2 LUT      0.095507
    233 H11        72.3142   62.1568   42.1542 U9         2 LUT      0.068930
    234 H10        72.2487   64.0560   44.7376 U8         2 LUT      0.083911
    235 H1         89.1048   66.4267   29.7953 Q1         2 LUT      0.297311
@<TRIPOS>BOND
    1     6     1 1
    2     7     2 1
    3     8     3 1
    4     9     4 1
    5    11     4 1
    6    12     6 1
    7    13     9 1
    8    16     9 1
    9    25     5 1
   10    25    16 1
   11    26    10 1
   12    26    17 1
   13    27    18 1
   14    28    14 1
   15    28    19 1
   16    29    12 1
   17    30    13 1
   18    31    24 1
   19    32     1 1
   20    32    25 1
   21    33    21 1
   22    33    26 1
   23    34    22 1
   24    34    27 1
   25    35    23 1
   26    35    28 1
   27    36    12 1
   28    36    24 1
   29    37    13 1
   30    37    15 1
   31    38    31 1
   32    39    20 1
   33    39    32 1
   34    40     2 1
   35    40    33 1
   36    41     3 1
   37    41    34 1
   38    42     4 1
   39    42    35 1
   40    43    38 1
   41    44     5 1
   42    44    17 1
   43    44    39 1
   44    45    10 1
   45    45    18 1
   46    45    40 1
   47    46    19 1
   48    46    41 1
   49    47    14 1
   50    47    16 1
   51    47    42 1
   52    48    38 1
   53    49    48 1
   54    50    49 1
   55    51    50 1
   56    52    51 1
   57    53    51 1
   58    54    53 1
   59    55    54 1
   60    56    55 1
   61    57    56 1
   62    58    56 1
   63    59    58 1
   64    60    59 1
   65    61    60 1
   66    62    61 1
   67    63    61 1
   68    64    27 1
   69    64    46 1
   70    65     5 1
   71    65    10 1
   72    65    64 1
   73    65    14 1
   74    66    23 1
   75    67    23 1
   76    68    23 1
   77    69    22 1
   78    70    22 1
   79    71    22 1
   80    72    21 1
   81    73    21 1
   82    74    21 1
   83    75    20 1
   84    76    20 1
   85    77    20 1
   86    78    15 1
   87    79    15 1
   88    80    15 1
   89    81     8 1
   90    82     8 1
   91    83     8 1
   92    84     7 1
   93    85     7 1
   94    86     6 1
   95    87     6 1
   96    88     3 1
   97    89     3 1
   98    90     1 1
   99    91     1 1
  100    92    63 1
  101    93    63 1
  102    94    63 1
  103    95    62 1
  104    96    62 1
  105    97    62 1
  106    98    60 1
  107    99    60 1
  108   100    59 1
  109   101    59 1
  110   102    58 1
  111   103    58 1
  112   104    57 1
  113   105    57 1
  114   106    57 1
  115   107    55 1
  116   108    55 1
  117   109    54 1
  118   110    54 1
  119   111    53 1
  120   112    53 1
  121   113    19 1
  122   114    18 1
  123   115    17 1
  124   116     9 1
  125   117     2 1
  126   118    52 1
  127   119    52 1
  128   120    52 1
  129   121    51 1
  130   122    50 1
  131   123    50 1
  132   124    49 1
  133   125    49 1
  134   126    48 1
  135   127    48 1
  136   128    43 1
  137   129    43 1
  138   130    43 1
  139   131    39 1
  140   132    32 1
  141   133    31 1
  142   134    61 1
  143   135    56 1
  144   136    24 1
  145   137    24 1
  146   139   138 1
  147   140   139 1
  148   141   140 1
  149   142   140 1
  150   143   142 1
  151   144   138 1
  152   144   143 1
  153   145   144 1
  154   146   145 1
  155   147   146 1
  156   148   147 1
  157   149   148 1
  158   150   149 1
  159   151   150 1
  160   152   151 1
  161   153   152 1
  162   154   138 1
  163   155   138 1
  164   156   143 1
  165   157   147 1
  166   158   151 1
  167   160   159 1
  168   161   160 1
  169   162   161 1
  170   163   161 1
  171   164   163 1
  172   165   159 1
  173   165   164 1
  174   166   165 1
  175   167   166 1
  176   168   167 1
  177   169   168 1
  178   170   169 1
  179   171   170 1
  180   172   171 1
  181   173   172 1
  182   174   153 1
  183   174   173 1
  184   175   159 1
  185   176   159 1
  186   177   164 1
  187   178   168 1
  188   179   172 1
  189   180   179 1
  190   181   179 1
  191   182   179 1
  192   183   178 1
  193   184   178 1
  194   185   178 1
  195   186   177 1
  196   187   177 1
  197   188   177 1
  198   189   176 1
  199   190   176 1
  200   191   176 1
  201   192   175 1
  202   193   175 1
  203   194   175 1
  204   195   160 1
  205   196   160 1
  206   197   158 1
  207   198   158 1
  208   199   158 1
  209   200   157 1
  210   201   157 1
  211   202   157 1
  212   203   156 1
  213   204   156 1
  214   205   156 1
  215   206   155 1
  216   207   155 1
  217   208   155 1
  218   209   154 1
  219   210   154 1
  220   211   154 1
  221   212   141 1
  222   213   146 1
  223   214   145 1
  224   215   142 1
  225   216   142 1
  226   217   174 1
  227   218   173 1
  228   219   171 1
  229   220   170 1
  230   221   169 1
  231   222   140 1
  232   223   167 1
  233   224   166 1
  234   225   165 1
  235   226   163 1
  236   227   161 1
  237   228   139 1
  238   229   139 1
  239   230   153 1
  240   231   152 1
  241   232   150 1
  242   233   149 1
  243   234   148 1
  244   235   162 1
  245   65    153 1
  246   65    174 1
@<TRIPOS>SUBSTRUCTURE
      1 CLA               1 ****               0 ****  **** 
      2 LUT             138 ****               0 ****  **** 
