@<TRIPOS>MOLECULE
Cpptraj generated mol2 file.
  235   246     2     0     0
SMALL
USER_CHARGES


@<TRIPOS>ATOM
      1 CAA        77.9527   58.0505   35.0869 a2         1 CLA     -0.055900
      2 CAB        78.3093   62.1647   44.0374 c8         1 CLA     -0.148500
      3 CAC        71.1908   58.3369   43.7762 a2         1 CLA     -0.012600
      4 CAD        73.8003   55.5147   36.5427 ck         1 CLA      0.398800
      5 NA         77.0871   58.5984   38.5665 ns         1 CLA     -0.225500
      6 CBA        79.0804   57.5502   34.0690 a2         1 CLA     -0.135000
      7 CBB        79.5239   62.0604   44.6496 c0         1 CLA     -0.395200
      8 CBC        71.2963   56.8302   44.0187 a3         1 CLA     -0.037700
      9 CBD        75.3190   55.8873   36.3400 a1         1 CLA     -0.053900
     10 NB         76.9372   60.2981   41.0554 nm         1 CLA     -0.295700
     11 OBD        73.2168   54.6824   35.8817 o2         1 CLA     -0.494600
     12 CGA        79.4908   56.0663   33.8147 c4         1 CLA      0.827000
     13 CGD        76.2191   54.6703   36.2143 c4         1 CLA      0.655300
     14 ND         74.2831   57.8113   39.2145 nm         1 CLA     -0.291600
     15 CED        76.8805   52.5931   37.2471 a3         1 CLA      0.005400
     16 CHA        75.7373   56.9997   37.3177 cs         1 CLA     -0.123800
     17 CHB        78.7782   60.3010   39.3760 aa         1 CLA     -0.291900
     18 CHC        75.6830   60.5382   43.1803 aa         1 CLA     -0.090400
     19 CHD        72.3894   57.8603   40.7932 aa         1 CLA     -0.052000
     20 CMA        80.5418   58.0152   37.8609 a3         1 CLA     -0.230700
     21 CMB        80.1504   62.1055   41.3633 a3         1 CLA     -0.180800
     22 CMC        73.2852   60.1558   45.3307 a3         1 CLA     -0.134000
     23 CMD        70.8765   56.2358   38.5190 a3         1 CLA     -0.141100
     24 C1         80.3571   54.1147   34.7285 a2         1 CLA      0.023000
     25 C1A        76.9092   57.7592   37.5241 ac         1 CLA     -0.015100
     26 C1B        78.1848   60.7049   40.5916 cr         1 CLA      0.054700
     27 C1C        74.4721   59.9083   42.9088 cn         1 CLA     -0.005600
     28 C1D        73.0367   57.3974   39.5977 ap         1 CLA     -0.047300
     29 O1A        79.2815   55.4953   32.8158 o2         1 CLA     -0.610800
     30 O1D        77.0176   54.4364   35.2761 o2         1 CLA     -0.558200
     31 C2         80.4861   53.3333   36.0147 c8         1 CLA     -0.325100
     32 C2A        78.2108   57.7126   36.6159 a1         1 CLA      0.098600
     33 C2B        78.8209   61.4706   41.5760 cb         1 CLA      0.088500
     34 C2C        73.3755   59.7504   43.8195 cb         1 CLA      0.053700
     35 C2D        72.4060   56.6139   38.5333 cb         1 CLA      0.058900
     36 O2A        80.0536   55.5299   34.9691 o1         1 CLA     -0.437200
     37 O2D        76.0697   53.8142   37.2707 o1         1 CLA     -0.357600
     38 C3         81.6336   53.3285   36.7363 c5         1 CLA      0.031200
     39 C3A        79.1734   58.6538   37.4128 a1         1 CLA      0.166800
     40 C3B        77.9980   61.4405   42.7489 cb         1 CLA      0.035000
     41 C3C        72.4710   58.8724   43.1766 cb         1 CLA     -0.089900
     42 C3D        73.4276   56.3141   37.6878 cb         1 CLA     -0.035900
     43 C4         82.7028   52.3354   36.3488 a3         1 CLA     -0.053300
     44 C4A        78.3106   59.2389   38.5229 ac         1 CLA      0.001800
     45 C4B        76.7564   60.7384   42.3550 cn         1 CLA     -0.020900
     46 C4C        73.0207   58.6275   41.8517 cr         1 CLA     -0.044400
     47 C4D        74.5738   57.0842   38.1029 c6         1 CLA     -0.046000
     48 C5         81.7758   54.1048   38.0453 a2         1 CLA     -0.070400
     49 C6         82.8301   55.2105   37.9493 a2         1 CLA      0.043900
     50 C7         83.1643   55.7261   39.3852 a2         1 CLA     -0.150000
     51 C8         83.8323   57.1103   39.4677 a1         1 CLA      0.064200
     52 C9         85.1924   57.1225   38.7453 a3         1 CLA     -0.259300
     53 C10        83.9190   57.6197   40.9649 a2         1 CLA     -0.071900
     54 C11        82.6539   58.0009   41.6766 a2         1 CLA      0.014500
     55 C12        82.9174   58.7286   42.9912 a2         1 CLA     -0.112100
     56 C13        83.8366   58.0260   44.0489 a1         1 CLA      0.089200
     57 C14        83.0606   56.8866   44.7624 a3         1 CLA     -0.239100
     58 C15        84.5267   59.0020   45.0940 a2         1 CLA     -0.102200
     59 C16        83.5969   59.9427   45.8483 a2         1 CLA      0.023900
     60 C17        84.3602   60.7157   46.9252 a2         1 CLA     -0.105700
     61 C18        83.5616   61.7359   47.7641 a1         1 CLA      0.206800
     62 C19        84.4178   62.5059   48.7251 a3         1 CLA     -0.280100
     63 C20        82.7269   62.6924   46.9757 a3         1 CLA     -0.280100
     64 NC         74.2146   59.2945   41.7402 nx         1 CLA     -0.309200
     65 MG         75.5979   59.0820   40.0290 mg         1 CLA      0.895000
     66 HMD3       70.6678   55.4292   37.8476 dc         1 CLA      0.064300
     67 HMD2       70.5637   55.8896   39.5502 dc         1 CLA      0.064300
     68 HMD1       70.2568   57.0802   38.2657 dc         1 CLA      0.064300
     69 HMC3       74.0847   60.8452   45.6031 dc         1 CLA      0.052100
     70 HMC2       72.4187   60.7484   45.5634 dc         1 CLA      0.052100
     71 HMC1       73.2408   59.2917   46.0069 dc         1 CLA      0.052100
     72 HMB3       80.5176   62.2282   40.3091 dc         1 CLA      0.063600
     73 HMB2       80.1080   63.0403   41.8753 dc         1 CLA      0.063600
     74 HMB1       80.7920   61.3838   41.9356 dc         1 CLA      0.063600
     75 HMA3       81.1971   57.7018   37.0687 dc         1 CLA      0.058300
     76 HMA2       81.1048   58.7161   38.4699 dc         1 CLA      0.058300
     77 HMA1       80.3695   57.1784   38.5164 dc         1 CLA      0.058300
     78 HED3       76.5358   52.0827   38.0989 dc         1 CLA      0.079300
     79 HED2       76.7246   51.9891   36.3121 dc         1 CLA      0.079300
     80 HED1       77.9272   52.8696   37.2531 dc         1 CLA      0.079300
     81 HBC3       72.0336   56.5560   44.8353 dc         1 CLA      0.016300
     82 HBC2       70.2688   56.4324   44.1804 dc         1 CLA      0.016300
     83 HBC1       71.6686   56.3504   43.1064 dc         1 CLA      0.016300
     84 HBB2       79.7520   62.5376   45.6454 da         1 CLA      0.183000
     85 HBB1       80.3077   61.6013   44.1048 da         1 CLA      0.183000
     86 HBA2       79.0223   57.9465   33.1085 dc         1 CLA      0.029400
     87 HBA1       80.0742   57.9260   34.3528 dc         1 CLA      0.029400
     88 HAC2       70.9209   58.8420   44.6608 dc         1 CLA      0.029300
     89 HAC1       70.4022   58.5528   43.0204 dc         1 CLA      0.029300
     90 HAA2       77.0313   57.6103   34.8701 dc         1 CLA      0.028700
     91 HAA1       77.9180   59.1470   35.0772 dc         1 CLA      0.028700
     92 H203       82.1426   63.2856   47.6915 dc         1 CLA      0.065600
     93 H202       83.4293   63.4451   46.6043 dc         1 CLA      0.065600
     94 H201       82.1295   62.1514   46.1727 dc         1 CLA      0.065600
     95 H193       85.1587   63.0361   48.1074 dc         1 CLA      0.065600
     96 H192       83.8214   63.3364   49.2343 dc         1 CLA      0.065600
     97 H191       84.8168   61.8099   49.4679 dc         1 CLA      0.065600
     98 H172       84.8740   59.9733   47.5738 dc         1 CLA      0.027600
     99 H171       85.1275   61.2581   46.3750 dc         1 CLA      0.027600
    100 H162       82.9992   60.5199   45.1424 dc         1 CLA      0.002900
    101 H161       82.7300   59.4513   46.3843 dc         1 CLA      0.002900
    102 H152       85.1425   58.3989   45.7508 dc         1 CLA      0.029100
    103 H151       85.1982   59.6622   44.5522 dc         1 CLA      0.029100
    104 H143       82.3450   57.3299   45.4392 dc         1 CLA      0.063600
    105 H142       82.4027   56.3685   44.0139 dc         1 CLA      0.063600
    106 H141       83.6779   56.2580   45.3550 dc         1 CLA      0.063600
    107 H122       83.3391   59.7550   42.7456 dc         1 CLA      0.032500
    108 H121       81.9555   58.8620   43.5110 dc         1 CLA      0.032500
    109 H112       82.0164   58.6990   41.0927 dc         1 CLA      0.006600
    110 H111       82.1618   57.1199   41.9811 dc         1 CLA      0.006600
    111 H102       84.4983   56.9548   41.5522 dc         1 CLA      0.024100
    112 H101       84.4609   58.5076   40.8694 dc         1 CLA      0.024100
    113 HHD        71.3901   57.5186   40.9572 da         1 CLA      0.174300
    114 HHC        75.7364   61.0837   44.1018 da         1 CLA      0.136800
    115 HHB        79.6428   60.8349   39.1166 da         1 CLA      0.138300
    116 HBD        75.3731   56.3092   35.3131 dc         1 CLA      0.107700
    117 HAB        77.4483   62.6453   44.4982 da         1 CLA      0.155200
    118 H93        85.1533   56.5956   37.7764 dc         1 CLA      0.069500
    119 H92        85.6091   58.0946   38.5124 dc         1 CLA      0.069500
    120 H91        85.8469   56.5815   39.4516 dc         1 CLA      0.069500
    121 H8         83.1621   57.7151   38.8778 dc         1 CLA      0.029300
    122 H72        82.2857   55.6663   40.0226 dc         1 CLA      0.044400
    123 H71        83.8429   55.0654   39.8895 dc         1 CLA      0.044400
    124 H62        83.7347   54.8493   37.4411 dc         1 CLA      0.015600
    125 H61        82.4033   55.9781   37.3175 dc         1 CLA      0.015600
    126 H52        80.8249   54.6660   38.1211 dc         1 CLA      0.033200
    127 H51        81.9028   53.3671   38.8648 dc         1 CLA      0.033200
    128 H43        82.8645   51.7009   37.2719 dc         1 CLA      0.037000
    129 H42        82.4937   51.7205   35.5335 dc         1 CLA      0.037000
    130 H41        83.6600   52.9466   36.2887 dc         1 CLA      0.037000
    131 H3A        79.3808   59.5205   36.7527 dc         1 CLA      0.041100
    132 H2A        78.5804   56.6743   36.7968 dc         1 CLA      0.083100
    133 H2         79.8842   52.4721   36.2487 da         1 CLA      0.180900
    134 H18        82.8521   61.1174   48.3715 dc         1 CLA     -0.003900
    135 H13        84.6273   57.5530   43.5561 dc         1 CLA      0.019700
    136 H12        79.6518   53.4616   34.2061 dc         1 CLA      0.120400
    137 H11        81.4215   54.0082   34.3676 dc         1 CLA      0.120400
    138 C1         67.2303   62.8483   51.1519 Z1         2 LUT      0.509236
    139 C2         67.1269   64.1673   51.9994 Z2         2 LUT     -0.434695
    140 C3         65.7621   64.9655   51.8246 Z3         2 LUT      0.437453
    141 O3         65.9237   66.3397   52.0251 S1         2 LUT     -0.547129
    142 C4         65.2540   64.8482   50.3682 Z4         2 LUT     -0.468603
    143 C5         66.0048   64.0856   49.3010 Z5         2 LUT      0.279246
    144 C6         66.8465   63.0958   49.6786 Z6         2 LUT     -0.305473
    145 C7         67.6722   62.4129   48.5674 Z7         2 LUT      0.069402
    146 C8         68.3117   62.9472   47.4879 Z8         2 LUT     -0.191631
    147 C9         69.0053   62.2657   46.3830 Z9         2 LUT      0.196698
    148 C10        69.8661   63.0020   45.5948 Y1         2 LUT     -0.208611
    149 C11        70.6418   62.7887   44.4208 Y2         2 LUT      0.030784
    150 C12        71.7511   63.5098   44.0391 Y3         2 LUT     -0.220316
    151 C13        72.7295   63.1441   42.9505 Y4         2 LUT      0.215937
    152 C14        73.8146   63.9825   42.7776 Y5         2 LUT     -0.185793
    153 C15        74.9420   63.8601   41.8771 Y6         2 LUT     -0.057835
    154 C16        66.1734   62.0044   51.8666 Y7         2 LUT     -0.405615
    155 C17        68.5655   62.2339   51.4412 Y7         2 LUT     -0.405615
    156 C18        65.6726   64.6379   47.9156 Y9         2 LUT     -0.369639
    157 C19        68.4233   60.8838   45.9680 W1         2 LUT     -0.333362
    158 C20        72.2316   62.2902   41.8059 W2         2 LUT     -0.323439
    159 C21        86.7231   65.3004   35.9500 Z1         2 LUT      0.406104
    160 C22        87.4270   64.8720   34.6164 Z2         2 LUT     -0.404965
    161 C23        87.2955   65.8176   33.4363 Z3         2 LUT      0.391255
    162 O23        87.9431   65.2284   32.2756 S1         2 LUT     -0.528210
    163 C24        85.8407   66.3249   33.3226 W6         2 LUT     -0.258361
    164 C25        84.9318   66.3389   34.2829 Z5         2 LUT      0.133546
    165 C26        85.2180   65.5856   35.6519 W8         2 LUT     -0.147008
    166 C27        84.4645   66.1421   36.8267 Z7         2 LUT      0.023843
    167 C28        83.2368   65.7328   37.2132 Z8         2 LUT     -0.216987
    168 C29        82.5739   66.1147   38.5198 Z9         2 LUT      0.206524
    169 C30        81.4156   65.4900   38.8408 Y1         2 LUT     -0.215556
    170 C31        80.5263   65.7584   39.9599 Y2         2 LUT      0.025142
    171 C32        79.3056   65.1773   40.1203 Y3         2 LUT     -0.212209
    172 C33        78.4022   65.3851   41.3366 Y4         2 LUT      0.240937
    173 C34        77.1726   64.6938   41.1871 Y5         2 LUT     -0.218862
    174 C35        76.0165   64.7086   42.0069 Y6         2 LUT     -0.023547
    175 C36        87.5357   66.4026   36.5071 Y7         2 LUT     -0.393485
    176 C37        86.9385   64.1704   36.9386 Y7         2 LUT     -0.393485
    177 C38        83.5264   66.8681   34.0400 Y9         2 LUT     -0.387526
    178 C39        83.3190   67.2039   39.4035 W1         2 LUT     -0.322618
    179 C40        78.7678   66.3028   42.4860 W2         2 LUT     -0.358472
    180 H403       79.7197   66.1122   42.9591 R7         2 LUT      0.097720
    181 H402       78.6568   67.3324   42.2915 R7         2 LUT      0.097720
    182 H401       78.0452   66.1739   43.2782 R7         2 LUT      0.097720
    183 H393       83.7565   67.9787   38.8262 R4         2 LUT      0.082505
    184 H392       82.5884   67.7488   40.0192 R4         2 LUT      0.082505
    185 H391       83.9392   66.7056   40.1364 R4         2 LUT      0.082505
    186 H383       82.7803   66.0820   34.0441 R1         2 LUT      0.104030
    187 H382       83.2553   67.6507   34.7828 R1         2 LUT      0.104030
    188 H381       83.4498   67.3898   33.0582 R1         2 LUT      0.104030
    189 H373       86.2309   64.2339   37.7218 T4         2 LUT      0.089537
    190 H372       86.8734   63.1672   36.4763 T4         2 LUT      0.089537
    191 H371       87.9089   64.3103   37.4492 T4         2 LUT      0.089537
    192 H363       87.2297   67.3630   36.0836 T4         2 LUT      0.089537
    193 H362       87.2784   66.4613   37.6152 T4         2 LUT      0.089537
    194 H361       88.6028   66.2352   36.4573 T4         2 LUT      0.089537
    195 H222       88.4735   64.7289   34.8099 U2         2 LUT      0.127376
    196 H221       86.9626   63.9589   34.2936 U2         2 LUT      0.127376
    197 H203       72.9398   61.6500   41.4546 R7         2 LUT      0.087068
    198 H202       71.2901   61.8294   42.0007 R7         2 LUT      0.087068
    199 H201       72.0059   62.8878   40.9499 R7         2 LUT      0.087068
    200 H193       69.1460   60.0901   46.1887 R4         2 LUT      0.089716
    201 H192       67.4343   60.5774   46.4446 R4         2 LUT      0.089716
    202 H191       68.0780   60.7124   44.9294 R4         2 LUT      0.089716
    203 H183       66.5353   65.3549   47.7110 R1         2 LUT      0.094572
    204 H182       65.6954   63.8396   47.1593 R1         2 LUT      0.094572
    205 H181       64.6772   65.0862   47.8647 R1         2 LUT      0.094572
    206 H173       68.6594   61.2904   50.9472 T4         2 LUT      0.093752
    207 H172       69.3331   62.9268   51.0993 T4         2 LUT      0.093752
    208 H171       68.7408   62.0452   52.5092 T4         2 LUT      0.093752
    209 H163       65.1929   62.2978   51.7013 T4         2 LUT      0.093752
    210 H162       66.3100   60.9415   51.6156 T4         2 LUT      0.093752
    211 H161       66.3478   62.1194   52.9919 T4         2 LUT      0.093752
    212 HO3        65.6764   66.5246   52.9811 Q1         2 LUT      0.300121
    213 H8         68.4670   64.0391   47.4825 U7         2 LUT      0.080784
    214 H7         67.8234   61.3966   48.7440 U6         2 LUT      0.042190
    215 H42        64.2521   64.3795   50.3169 U5         2 LUT      0.145166
    216 H41        64.9561   65.8151   50.0074 U5         2 LUT      0.145166
    217 H35        75.9333   65.4954   42.7628 T3         2 LUT      0.077919
    218 H34        77.0504   63.8938   40.3859 T2         2 LUT      0.073626
    219 H32        78.8638   64.5455   39.3202 T1         2 LUT      0.092510
    220 H31        80.9173   66.6020   40.6137 U9         2 LUT      0.070048
    221 H30        80.9664   64.8389   38.0343 U8         2 LUT      0.085442
    222 H3         64.9946   64.5031   52.4851 U3         2 LUT     -0.031596
    223 H28        82.6744   65.0759   36.5277 U7         2 LUT      0.084728
    224 H27        85.1114   66.7227   37.4630 U6         2 LUT      0.087291
    225 H26        84.8511   64.5122   35.4328 Q6         2 LUT      0.075325
    226 H24        85.5745   66.8343   32.4046 Q5         2 LUT      0.094482
    227 H23        87.8781   66.6690   33.7526 U3         2 LUT     -0.024869
    228 H22        67.3788   64.1046   53.0294 U2         2 LUT      0.127376
    229 H21        67.8548   64.8657   51.6544 U2         2 LUT      0.127376
    230 H15        75.0496   63.0750   41.1289 T3         2 LUT      0.093200
    231 H14        73.9602   64.8417   43.4039 T2         2 LUT      0.068865
    232 H12        71.9978   64.3401   44.6995 T1         2 LUT      0.095507
    233 H11        70.3545   61.8646   43.8996 U9         2 LUT      0.068930
    234 H10        70.0878   63.9943   45.9430 U8         2 LUT      0.083911
    235 H1         87.4165   64.6809   31.6541 Q1         2 LUT      0.297311
@<TRIPOS>BOND
    1     6     1 1
    2     7     2 1
    3     8     3 1
    4     9     4 1
    5    11     4 1
    6    12     6 1
    7    13     9 1
    8    16     9 1
    9    25     5 1
   10    25    16 1
   11    26    10 1
   12    26    17 1
   13    27    18 1
   14    28    14 1
   15    28    19 1
   16    29    12 1
   17    30    13 1
   18    31    24 1
   19    32     1 1
   20    32    25 1
   21    33    21 1
   22    33    26 1
   23    34    22 1
   24    34    27 1
   25    35    23 1
   26    35    28 1
   27    36    12 1
   28    36    24 1
   29    37    13 1
   30    37    15 1
   31    38    31 1
   32    39    20 1
   33    39    32 1
   34    40     2 1
   35    40    33 1
   36    41     3 1
   37    41    34 1
   38    42     4 1
   39    42    35 1
   40    43    38 1
   41    44     5 1
   42    44    17 1
   43    44    39 1
   44    45    10 1
   45    45    18 1
   46    45    40 1
   47    46    19 1
   48    46    41 1
   49    47    14 1
   50    47    16 1
   51    47    42 1
   52    48    38 1
   53    49    48 1
   54    50    49 1
   55    51    50 1
   56    52    51 1
   57    53    51 1
   58    54    53 1
   59    55    54 1
   60    56    55 1
   61    57    56 1
   62    58    56 1
   63    59    58 1
   64    60    59 1
   65    61    60 1
   66    62    61 1
   67    63    61 1
   68    64    27 1
   69    64    46 1
   70    65     5 1
   71    65    10 1
   72    65    64 1
   73    65    14 1
   74    66    23 1
   75    67    23 1
   76    68    23 1
   77    69    22 1
   78    70    22 1
   79    71    22 1
   80    72    21 1
   81    73    21 1
   82    74    21 1
   83    75    20 1
   84    76    20 1
   85    77    20 1
   86    78    15 1
   87    79    15 1
   88    80    15 1
   89    81     8 1
   90    82     8 1
   91    83     8 1
   92    84     7 1
   93    85     7 1
   94    86     6 1
   95    87     6 1
   96    88     3 1
   97    89     3 1
   98    90     1 1
   99    91     1 1
  100    92    63 1
  101    93    63 1
  102    94    63 1
  103    95    62 1
  104    96    62 1
  105    97    62 1
  106    98    60 1
  107    99    60 1
  108   100    59 1
  109   101    59 1
  110   102    58 1
  111   103    58 1
  112   104    57 1
  113   105    57 1
  114   106    57 1
  115   107    55 1
  116   108    55 1
  117   109    54 1
  118   110    54 1
  119   111    53 1
  120   112    53 1
  121   113    19 1
  122   114    18 1
  123   115    17 1
  124   116     9 1
  125   117     2 1
  126   118    52 1
  127   119    52 1
  128   120    52 1
  129   121    51 1
  130   122    50 1
  131   123    50 1
  132   124    49 1
  133   125    49 1
  134   126    48 1
  135   127    48 1
  136   128    43 1
  137   129    43 1
  138   130    43 1
  139   131    39 1
  140   132    32 1
  141   133    31 1
  142   134    61 1
  143   135    56 1
  144   136    24 1
  145   137    24 1
  146   139   138 1
  147   140   139 1
  148   141   140 1
  149   142   140 1
  150   143   142 1
  151   144   138 1
  152   144   143 1
  153   145   144 1
  154   146   145 1
  155   147   146 1
  156   148   147 1
  157   149   148 1
  158   150   149 1
  159   151   150 1
  160   152   151 1
  161   153   152 1
  162   154   138 1
  163   155   138 1
  164   156   143 1
  165   157   147 1
  166   158   151 1
  167   160   159 1
  168   161   160 1
  169   162   161 1
  170   163   161 1
  171   164   163 1
  172   165   159 1
  173   165   164 1
  174   166   165 1
  175   167   166 1
  176   168   167 1
  177   169   168 1
  178   170   169 1
  179   171   170 1
  180   172   171 1
  181   173   172 1
  182   174   153 1
  183   174   173 1
  184   175   159 1
  185   176   159 1
  186   177   164 1
  187   178   168 1
  188   179   172 1
  189   180   179 1
  190   181   179 1
  191   182   179 1
  192   183   178 1
  193   184   178 1
  194   185   178 1
  195   186   177 1
  196   187   177 1
  197   188   177 1
  198   189   176 1
  199   190   176 1
  200   191   176 1
  201   192   175 1
  202   193   175 1
  203   194   175 1
  204   195   160 1
  205   196   160 1
  206   197   158 1
  207   198   158 1
  208   199   158 1
  209   200   157 1
  210   201   157 1
  211   202   157 1
  212   203   156 1
  213   204   156 1
  214   205   156 1
  215   206   155 1
  216   207   155 1
  217   208   155 1
  218   209   154 1
  219   210   154 1
  220   211   154 1
  221   212   141 1
  222   213   146 1
  223   214   145 1
  224   215   142 1
  225   216   142 1
  226   217   174 1
  227   218   173 1
  228   219   171 1
  229   220   170 1
  230   221   169 1
  231   222   140 1
  232   223   167 1
  233   224   166 1
  234   225   165 1
  235   226   163 1
  236   227   161 1
  237   228   139 1
  238   229   139 1
  239   230   153 1
  240   231   152 1
  241   232   150 1
  242   233   149 1
  243   234   148 1
  244   235   162 1
  245   65    153 1
  246   65    174 1
@<TRIPOS>SUBSTRUCTURE
      1 CLA               1 ****               0 ****  **** 
      2 LUT             138 ****               0 ****  **** 
