@<TRIPOS>MOLECULE
Cpptraj generated mol2 file.
  235   246     2     0     0
SMALL
USER_CHARGES


@<TRIPOS>ATOM
      1 CAA        79.6645   58.7635   32.9428 a2         1 CLA     -0.055900
      2 CAB        79.3449   62.3542   42.0709 c8         1 CLA     -0.148500
      3 CAC        72.5463   58.2048   41.3020 a2         1 CLA     -0.012600
      4 CAD        75.5722   55.8591   34.2206 ck         1 CLA      0.398800
      5 NA         78.5822   59.0571   36.3379 ns         1 CLA     -0.225500
      6 CBA        80.9868   58.6812   32.0947 a2         1 CLA     -0.135000
      7 CBB        80.4445   62.6219   42.7816 c0         1 CLA     -0.395200
      8 CBC        72.4489   56.6254   41.1810 a3         1 CLA     -0.037700
      9 CBD        77.0490   56.4114   33.9292 a1         1 CLA     -0.053900
     10 NB         78.3339   60.4725   39.0650 nm         1 CLA     -0.295700
     11 OBD        74.9825   55.0728   33.5130 o2         1 CLA     -0.494600
     12 CGA        81.4837   57.2137   31.9055 c4         1 CLA      0.827000
     13 CGD        78.1533   55.3437   33.8309 c4         1 CLA      0.655300
     14 ND         75.8130   58.2046   36.9581 nm         1 CLA     -0.291600
     15 CED        78.9082   53.2258   34.4401 a3         1 CLA      0.005400
     16 CHA        77.3758   57.5127   35.0285 cs         1 CLA     -0.123800
     17 CHB        80.2135   60.5763   37.4398 aa         1 CLA     -0.291900
     18 CHC        76.9659   60.7176   41.0545 aa         1 CLA     -0.090400
     19 CHD        73.8422   58.0655   38.4870 aa         1 CLA     -0.052000
     20 CMA        81.9478   58.5471   35.9106 a3         1 CLA     -0.230700
     21 CMB        81.6486   62.1990   39.6135 a3         1 CLA     -0.180800
     22 CMC        74.5763   59.9891   43.1299 a3         1 CLA     -0.134000
     23 CMD        72.8515   55.9219   36.4561 a3         1 CLA     -0.141100
     24 C1         82.5098   55.3037   32.9413 a2         1 CLA      0.023000
     25 C1A        78.5265   58.2432   35.2425 ac         1 CLA     -0.015100
     26 C1B        79.6011   60.9876   38.6060 cr         1 CLA      0.054700
     27 C1C        75.8000   59.9534   40.7522 cn         1 CLA     -0.005600
     28 C1D        74.5582   57.7218   37.2774 ap         1 CLA     -0.047300
     29 O1A        81.2825   56.6188   30.7854 o2         1 CLA     -0.610800
     30 O1D        79.0144   55.3944   32.9754 o2         1 CLA     -0.558200
     31 C2         83.1888   54.9704   34.3104 c8         1 CLA     -0.325100
     32 C2A        79.8107   58.3283   34.4605 a1         1 CLA      0.098600
     33 C2B        80.2511   61.6720   39.7063 cb         1 CLA      0.088500
     34 C2C        74.6604   59.6300   41.6421 cb         1 CLA      0.053700
     35 C2D        74.0738   56.7218   36.3648 cb         1 CLA      0.058900
     36 O2A        82.1108   56.7141   32.9935 o1         1 CLA     -0.437200
     37 O2D        77.9172   54.2978   34.6649 o1         1 CLA     -0.357600
     38 C3         84.3616   54.4090   34.4718 c5         1 CLA      0.031200
     39 C3A        80.7178   59.2949   35.2848 a1         1 CLA      0.166800
     40 C3B        79.3391   61.6982   40.7505 cb         1 CLA      0.035000
     41 C3C        73.8409   58.8079   40.8506 cb         1 CLA     -0.089900
     42 C3D        75.1719   56.5767   35.4543 cb         1 CLA     -0.035900
     43 C4         84.5416   52.9348   34.7779 a3         1 CLA     -0.053300
     44 C4A        79.7787   59.7005   36.3945 ac         1 CLA      0.001800
     45 C4B        78.1639   60.8996   40.3120 cn         1 CLA     -0.020900
     46 C4C        74.4087   58.7058   39.5465 cr         1 CLA     -0.044400
     47 C4D        76.1963   57.4795   35.8562 c6         1 CLA     -0.046000
     48 C5         85.5311   55.3347   34.3222 a2         1 CLA     -0.070400
     49 C6         85.8364   56.4958   35.2349 a2         1 CLA      0.043900
     50 C7         86.0035   56.1412   36.7472 a2         1 CLA     -0.150000
     51 C8         86.3881   57.2618   37.7362 a1         1 CLA      0.064200
     52 C9         87.8316   57.7603   37.5195 a3         1 CLA     -0.259300
     53 C10        86.1402   56.7372   39.2152 a2         1 CLA     -0.071900
     54 C11        86.8460   57.5168   40.3283 a2         1 CLA      0.014500
     55 C12        86.3247   57.1256   41.6974 a2         1 CLA     -0.112100
     56 C13        86.9684   57.7403   42.9986 a1         1 CLA      0.089200
     57 C14        88.5029   57.6862   42.9328 a3         1 CLA     -0.239100
     58 C15        86.5254   57.1354   44.3692 a2         1 CLA     -0.102200
     59 C16        84.9866   56.9497   44.4348 a2         1 CLA      0.023900
     60 C17        84.2402   58.3192   44.2927 a2         1 CLA     -0.105700
     61 C18        82.7073   58.2474   44.5631 a1         1 CLA      0.206800
     62 C19        82.3833   57.8006   46.0386 a3         1 CLA     -0.280100
     63 C20        82.0919   59.6350   44.3795 a3         1 CLA     -0.280100
     64 NC         75.6293   59.2840   39.5461 nx         1 CLA     -0.309200
     65 MG         77.0660   59.3567   37.9598 mg         1 CLA      0.895000
     66 HMD3       71.9502   56.5986   36.2847 dc         1 CLA      0.064300
     67 HMD2       72.8809   55.1365   35.7324 dc         1 CLA      0.064300
     68 HMD1       72.8540   55.4771   37.4588 dc         1 CLA      0.064300
     69 HMC3       74.4912   59.0779   43.7278 dc         1 CLA      0.052100
     70 HMC2       75.3828   60.5619   43.4761 dc         1 CLA      0.052100
     71 HMC1       73.7046   60.6140   43.2622 dc         1 CLA      0.052100
     72 HMB3       82.0635   62.3605   38.5899 dc         1 CLA      0.063600
     73 HMB2       81.5799   63.2134   40.0084 dc         1 CLA      0.063600
     74 HMB1       82.3387   61.7106   40.3636 dc         1 CLA      0.063600
     75 HMA3       81.4831   57.6978   36.4512 dc         1 CLA      0.058300
     76 HMA2       82.6430   58.0371   35.2882 dc         1 CLA      0.058300
     77 HMA1       82.4805   59.0771   36.7199 dc         1 CLA      0.058300
     78 HED3       78.6907   52.3675   35.0691 dc         1 CLA      0.079300
     79 HED2       78.7396   52.9767   33.4341 dc         1 CLA      0.079300
     80 HED1       79.9157   53.4586   34.7082 dc         1 CLA      0.079300
     81 HBC3       73.0788   56.2477   40.3122 dc         1 CLA      0.016300
     82 HBC2       72.8888   56.0832   42.0831 dc         1 CLA      0.016300
     83 HBC1       71.4235   56.3962   41.0770 dc         1 CLA      0.016300
     84 HBB2       80.3269   63.0208   43.8197 da         1 CLA      0.183000
     85 HBB1       81.4588   62.2280   42.5203 da         1 CLA      0.183000
     86 HBA2       80.7861   58.9869   31.0955 dc         1 CLA      0.029400
     87 HBA1       81.7418   59.3411   32.5830 dc         1 CLA      0.029400
     88 HAC2       72.3008   58.4721   42.2632 dc         1 CLA      0.029300
     89 HAC1       71.6803   58.5305   40.7177 dc         1 CLA      0.029300
     90 HAA2       78.8607   58.2517   32.3785 dc         1 CLA      0.028700
     91 HAA1       79.4884   59.8611   32.9229 dc         1 CLA      0.028700
     92 H203       82.4821   60.4052   45.0523 dc         1 CLA      0.065600
     93 H202       82.2062   59.9501   43.3442 dc         1 CLA      0.065600
     94 H201       81.0229   59.5172   44.5841 dc         1 CLA      0.065600
     95 H193       81.3127   57.7105   46.1755 dc         1 CLA      0.065600
     96 H192       82.7868   56.7558   46.2427 dc         1 CLA      0.065600
     97 H191       82.8247   58.5854   46.7235 dc         1 CLA      0.065600
     98 H172       84.7303   58.9436   45.1196 dc         1 CLA      0.027600
     99 H171       84.4475   58.7890   43.2893 dc         1 CLA      0.027600
    100 H162       84.5660   56.2104   43.7389 dc         1 CLA      0.002900
    101 H161       84.8136   56.5798   45.4364 dc         1 CLA      0.002900
    102 H152       86.8870   56.1087   44.4466 dc         1 CLA      0.029100
    103 H151       87.0204   57.5505   45.2329 dc         1 CLA      0.029100
    104 H143       88.7847   56.6183   42.8237 dc         1 CLA      0.063600
    105 H142       88.9690   58.3319   42.2530 dc         1 CLA      0.063600
    106 H141       88.8275   57.9869   43.9098 dc         1 CLA      0.063600
    107 H122       85.3285   57.3198   41.7761 dc         1 CLA      0.032500
    108 H121       86.3379   56.0699   41.9301 dc         1 CLA      0.032500
    109 H112       87.8897   57.1883   40.2069 dc         1 CLA      0.006600
    110 H111       86.8022   58.6222   40.1890 dc         1 CLA      0.006600
    111 H102       85.0440   56.6733   39.3665 dc         1 CLA      0.024100
    112 H101       86.5339   55.7570   39.4449 dc         1 CLA      0.024100
    113 HHD        72.8458   57.7243   38.4961 da         1 CLA      0.174300
    114 HHC        77.0956   61.1025   42.0858 da         1 CLA      0.136800
    115 HHB        81.1240   61.0668   37.2800 da         1 CLA      0.138300
    116 HBD        76.9629   56.9988   33.0053 dc         1 CLA      0.107700
    117 HAB        78.3926   62.6963   42.4641 da         1 CLA      0.155200
    118 H93        87.9641   58.7166   38.1057 dc         1 CLA      0.069500
    119 H92        88.5438   57.0011   37.9342 dc         1 CLA      0.069500
    120 H91        88.0394   58.0031   36.5011 dc         1 CLA      0.069500
    121 H8         85.6795   58.0873   37.5862 dc         1 CLA      0.029300
    122 H72        84.9977   55.6964   37.0027 dc         1 CLA      0.044400
    123 H71        86.6374   55.3349   36.9062 dc         1 CLA      0.044400
    124 H62        86.6624   57.0652   34.8950 dc         1 CLA      0.015600
    125 H61        84.9827   57.2155   35.1803 dc         1 CLA      0.015600
    126 H52        86.4063   54.7723   34.3675 dc         1 CLA      0.033200
    127 H51        85.4888   55.7424   33.3195 dc         1 CLA      0.033200
    128 H43        83.6639   52.4151   34.9500 dc         1 CLA      0.037000
    129 H42        85.0533   52.5707   33.8963 dc         1 CLA      0.037000
    130 H41        85.2167   52.7410   35.6012 dc         1 CLA      0.037000
    131 H3A        81.0828   60.1598   34.6756 dc         1 CLA      0.041100
    132 H2A        80.1988   57.3162   34.5254 dc         1 CLA      0.083100
    133 H2         82.7320   55.3306   35.2666 da         1 CLA      0.180900
    134 H18        82.3405   57.5657   43.8786 dc         1 CLA     -0.003900
    135 H13        86.7830   58.8567   43.0083 dc         1 CLA      0.019700
    136 H12        81.5666   54.6718   32.9307 dc         1 CLA      0.120400
    137 H11        83.2735   55.0560   32.1727 dc         1 CLA      0.120400
    138 C1         69.2692   61.5852   48.6800 Z1         2 LUT      0.509236
    139 C2         67.9304   61.3425   49.4366 Z2         2 LUT     -0.434695
    140 C3         67.0521   62.6288   49.5563 Z3         2 LUT      0.437453
    141 O3         66.9662   63.0749   50.8986 S1         2 LUT     -0.547129
    142 C4         67.5562   63.8479   48.7704 Z4         2 LUT     -0.468603
    143 C5         68.1902   63.5341   47.4783 Z5         2 LUT      0.279246
    144 C6         69.0201   62.5564   47.4801 Z6         2 LUT     -0.305473
    145 C7         69.4014   61.9996   46.1448 Z7         2 LUT      0.069402
    146 C8         70.4669   62.4999   45.4598 Z8         2 LUT     -0.191631
    147 C9         70.8877   62.3403   44.1250 Z9         2 LUT      0.196698
    148 C10        72.0666   62.9896   43.8309 Y1         2 LUT     -0.208611
    149 C11        72.7967   63.0432   42.5709 Y2         2 LUT      0.030784
    150 C12        73.9756   63.6982   42.4883 Y3         2 LUT     -0.220316
    151 C13        74.9159   63.8077   41.3639 Y4         2 LUT      0.215937
    152 C14        76.1348   64.5059   41.6330 Y5         2 LUT     -0.185793
    153 C15        77.2876   64.6290   40.7469 Y6         2 LUT     -0.057835
    154 C16        69.8855   60.2165   48.2740 Y7         2 LUT     -0.405615
    155 C17        70.1596   62.2949   49.6708 Y7         2 LUT     -0.405615
    156 C18        67.6206   64.3784   46.3908 Y9         2 LUT     -0.369639
    157 C19        70.2137   61.3932   43.1327 W1         2 LUT     -0.333362
    158 C20        74.4102   63.3730   39.9797 W2         2 LUT     -0.323439
    159 C21        88.3730   65.9696   34.1976 Z1         2 LUT      0.406104
    160 C22        89.1910   65.7528   32.8917 Z2         2 LUT     -0.404965
    161 C23        89.2964   66.9539   31.9980 Z3         2 LUT      0.391255
    162 O23        90.0746   66.4868   30.8955 S1         2 LUT     -0.528210
    163 C24        87.9347   67.4953   31.7531 W6         2 LUT     -0.258361
    164 C25        86.8836   67.3546   32.5079 Z5         2 LUT      0.133546
    165 C26        86.9121   66.4773   33.7796 W8         2 LUT     -0.147008
    166 C27        86.1771   67.1483   34.9404 Z7         2 LUT      0.023843
    167 C28        85.0760   66.6484   35.5420 Z8         2 LUT     -0.216987
    168 C29        84.4039   67.2483   36.7083 Z9         2 LUT      0.206524
    169 C30        83.2225   66.6285   37.0957 Y1         2 LUT     -0.215556
    170 C31        82.6287   66.6937   38.3772 Y2         2 LUT      0.025142
    171 C32        81.5001   65.9917   38.6790 Y3         2 LUT     -0.212209
    172 C33        80.6883   66.0660   39.8874 Y4         2 LUT      0.240937
    173 C34        79.5042   65.3233   39.8907 Y5         2 LUT     -0.218862
    174 C35        78.4802   65.2623   40.8722 Y6         2 LUT     -0.023547
    175 C36        89.1128   67.0460   35.1506 Y7         2 LUT     -0.393485
    176 C37        88.5835   64.6270   34.9500 Y7         2 LUT     -0.393485
    177 C38        85.6472   68.1700   32.1601 Y9         2 LUT     -0.387526
    178 C39        85.1767   68.2655   37.4112 W1         2 LUT     -0.322618
    179 C40        81.1478   67.0247   41.0008 W2         2 LUT     -0.358472
    180 H403       81.0127   68.0491   40.7799 R7         2 LUT      0.097720
    181 H402       80.6630   66.9262   41.9444 R7         2 LUT      0.097720
    182 H401       82.2038   66.9110   41.2478 R7         2 LUT      0.097720
    183 H393       85.9814   67.8231   37.9135 R4         2 LUT      0.082505
    184 H392       85.5921   69.0281   36.7044 R4         2 LUT      0.082505
    185 H391       84.6221   68.8264   38.1682 R4         2 LUT      0.082505
    186 H383       85.4886   68.4743   31.1433 R1         2 LUT      0.104030
    187 H382       84.6777   67.6349   32.4076 R1         2 LUT      0.104030
    188 H381       85.7586   68.9324   32.8796 R1         2 LUT      0.104030
    189 H373       89.6193   64.5489   35.2162 T4         2 LUT      0.089537
    190 H372       87.9850   64.6369   35.8802 T4         2 LUT      0.089537
    191 H371       88.2506   63.7689   34.3382 T4         2 LUT      0.089537
    192 H363       89.1161   68.0003   34.6677 T4         2 LUT      0.089537
    193 H362       88.6488   67.0474   36.1563 T4         2 LUT      0.089537
    194 H361       90.1921   66.7604   35.3373 T4         2 LUT      0.089537
    195 H222       90.2410   65.5214   33.0957 U2         2 LUT      0.127376
    196 H221       88.7754   64.8780   32.3852 U2         2 LUT      0.127376
    197 H203       73.5465   63.8231   39.6489 R7         2 LUT      0.087068
    198 H202       75.1347   63.6306   39.2109 R7         2 LUT      0.087068
    199 H201       74.2470   62.2745   39.8191 R7         2 LUT      0.087068
    200 H193       70.8026   61.2629   42.2653 R4         2 LUT      0.089716
    201 H192       69.7753   60.5250   43.5748 R4         2 LUT      0.089716
    202 H191       69.4341   62.0017   42.7992 R4         2 LUT      0.089716
    203 H183       67.6480   63.9350   45.4092 R1         2 LUT      0.094572
    204 H182       66.5709   64.5674   46.5796 R1         2 LUT      0.094572
    205 H181       68.0791   65.3419   46.2277 R1         2 LUT      0.094572
    206 H173       70.5637   61.5761   50.4653 T4         2 LUT      0.093752
    207 H172       70.9672   62.8408   49.1684 T4         2 LUT      0.093752
    208 H171       69.6415   62.9399   50.3154 T4         2 LUT      0.093752
    209 H163       70.7849   60.3390   47.6210 T4         2 LUT      0.093752
    210 H162       70.1605   59.5189   49.0826 T4         2 LUT      0.093752
    211 H161       69.1334   59.7672   47.6724 T4         2 LUT      0.093752
    212 HO3        66.2023   62.6774   51.2934 Q1         2 LUT      0.300121
    213 H8         71.1498   63.1090   46.0360 U7         2 LUT      0.080784
    214 H7         68.7812   61.2518   45.7592 U6         2 LUT      0.042190
    215 H42        66.7644   64.6599   48.7604 U5         2 LUT      0.145166
    216 H41        68.2783   64.3642   49.3689 U5         2 LUT      0.145166
    217 H35        78.5505   65.8422   41.7956 T3         2 LUT      0.077919
    218 H34        79.3708   64.6990   38.9215 T2         2 LUT      0.073626
    219 H32        81.0625   65.2944   37.9381 T1         2 LUT      0.092510
    220 H31        83.0092   67.3950   39.0794 U9         2 LUT      0.070048
    221 H30        82.9909   65.7704   36.4695 U8         2 LUT      0.085442
    222 H3         66.1413   62.4461   48.9645 U3         2 LUT     -0.031596
    223 H28        84.6185   65.7023   35.1611 U7         2 LUT      0.084728
    224 H27        86.6370   68.0681   35.2008 U6         2 LUT      0.087291
    225 H26        86.5033   65.4752   33.4727 Q6         2 LUT      0.075325
    226 H24        87.8419   68.3518   31.0868 Q5         2 LUT      0.094482
    227 H23        89.9559   67.6488   32.5888 U3         2 LUT     -0.024869
    228 H22        67.2640   60.6003   48.9547 U2         2 LUT      0.127376
    229 H21        67.9547   60.8436   50.4175 U2         2 LUT      0.127376
    230 H15        77.1369   64.1403   39.7956 T3         2 LUT      0.093200
    231 H14        76.2800   64.8674   42.6095 T2         2 LUT      0.068865
    232 H12        74.2463   64.1960   43.3536 T1         2 LUT      0.095507
    233 H11        72.6116   62.4085   41.7060 U9         2 LUT      0.068930
    234 H10        72.4184   63.7046   44.5155 U8         2 LUT      0.083911
    235 H1         89.6383   66.0031   30.1577 Q1         2 LUT      0.297311
@<TRIPOS>BOND
    1     6     1 1
    2     7     2 1
    3     8     3 1
    4     9     4 1
    5    11     4 1
    6    12     6 1
    7    13     9 1
    8    16     9 1
    9    25     5 1
   10    25    16 1
   11    26    10 1
   12    26    17 1
   13    27    18 1
   14    28    14 1
   15    28    19 1
   16    29    12 1
   17    30    13 1
   18    31    24 1
   19    32     1 1
   20    32    25 1
   21    33    21 1
   22    33    26 1
   23    34    22 1
   24    34    27 1
   25    35    23 1
   26    35    28 1
   27    36    12 1
   28    36    24 1
   29    37    13 1
   30    37    15 1
   31    38    31 1
   32    39    20 1
   33    39    32 1
   34    40     2 1
   35    40    33 1
   36    41     3 1
   37    41    34 1
   38    42     4 1
   39    42    35 1
   40    43    38 1
   41    44     5 1
   42    44    17 1
   43    44    39 1
   44    45    10 1
   45    45    18 1
   46    45    40 1
   47    46    19 1
   48    46    41 1
   49    47    14 1
   50    47    16 1
   51    47    42 1
   52    48    38 1
   53    49    48 1
   54    50    49 1
   55    51    50 1
   56    52    51 1
   57    53    51 1
   58    54    53 1
   59    55    54 1
   60    56    55 1
   61    57    56 1
   62    58    56 1
   63    59    58 1
   64    60    59 1
   65    61    60 1
   66    62    61 1
   67    63    61 1
   68    64    27 1
   69    64    46 1
   70    65     5 1
   71    65    10 1
   72    65    64 1
   73    65    14 1
   74    66    23 1
   75    67    23 1
   76    68    23 1
   77    69    22 1
   78    70    22 1
   79    71    22 1
   80    72    21 1
   81    73    21 1
   82    74    21 1
   83    75    20 1
   84    76    20 1
   85    77    20 1
   86    78    15 1
   87    79    15 1
   88    80    15 1
   89    81     8 1
   90    82     8 1
   91    83     8 1
   92    84     7 1
   93    85     7 1
   94    86     6 1
   95    87     6 1
   96    88     3 1
   97    89     3 1
   98    90     1 1
   99    91     1 1
  100    92    63 1
  101    93    63 1
  102    94    63 1
  103    95    62 1
  104    96    62 1
  105    97    62 1
  106    98    60 1
  107    99    60 1
  108   100    59 1
  109   101    59 1
  110   102    58 1
  111   103    58 1
  112   104    57 1
  113   105    57 1
  114   106    57 1
  115   107    55 1
  116   108    55 1
  117   109    54 1
  118   110    54 1
  119   111    53 1
  120   112    53 1
  121   113    19 1
  122   114    18 1
  123   115    17 1
  124   116     9 1
  125   117     2 1
  126   118    52 1
  127   119    52 1
  128   120    52 1
  129   121    51 1
  130   122    50 1
  131   123    50 1
  132   124    49 1
  133   125    49 1
  134   126    48 1
  135   127    48 1
  136   128    43 1
  137   129    43 1
  138   130    43 1
  139   131    39 1
  140   132    32 1
  141   133    31 1
  142   134    61 1
  143   135    56 1
  144   136    24 1
  145   137    24 1
  146   139   138 1
  147   140   139 1
  148   141   140 1
  149   142   140 1
  150   143   142 1
  151   144   138 1
  152   144   143 1
  153   145   144 1
  154   146   145 1
  155   147   146 1
  156   148   147 1
  157   149   148 1
  158   150   149 1
  159   151   150 1
  160   152   151 1
  161   153   152 1
  162   154   138 1
  163   155   138 1
  164   156   143 1
  165   157   147 1
  166   158   151 1
  167   160   159 1
  168   161   160 1
  169   162   161 1
  170   163   161 1
  171   164   163 1
  172   165   159 1
  173   165   164 1
  174   166   165 1
  175   167   166 1
  176   168   167 1
  177   169   168 1
  178   170   169 1
  179   171   170 1
  180   172   171 1
  181   173   172 1
  182   174   153 1
  183   174   173 1
  184   175   159 1
  185   176   159 1
  186   177   164 1
  187   178   168 1
  188   179   172 1
  189   180   179 1
  190   181   179 1
  191   182   179 1
  192   183   178 1
  193   184   178 1
  194   185   178 1
  195   186   177 1
  196   187   177 1
  197   188   177 1
  198   189   176 1
  199   190   176 1
  200   191   176 1
  201   192   175 1
  202   193   175 1
  203   194   175 1
  204   195   160 1
  205   196   160 1
  206   197   158 1
  207   198   158 1
  208   199   158 1
  209   200   157 1
  210   201   157 1
  211   202   157 1
  212   203   156 1
  213   204   156 1
  214   205   156 1
  215   206   155 1
  216   207   155 1
  217   208   155 1
  218   209   154 1
  219   210   154 1
  220   211   154 1
  221   212   141 1
  222   213   146 1
  223   214   145 1
  224   215   142 1
  225   216   142 1
  226   217   174 1
  227   218   173 1
  228   219   171 1
  229   220   170 1
  230   221   169 1
  231   222   140 1
  232   223   167 1
  233   224   166 1
  234   225   165 1
  235   226   163 1
  236   227   161 1
  237   228   139 1
  238   229   139 1
  239   230   153 1
  240   231   152 1
  241   232   150 1
  242   233   149 1
  243   234   148 1
  244   235   162 1
  245   65    153 1
  246   65    174 1
@<TRIPOS>SUBSTRUCTURE
      1 CLA               1 ****               0 ****  **** 
      2 LUT             138 ****               0 ****  **** 
