@<TRIPOS>MOLECULE
Cpptraj generated mol2 file.
  235   246     2     0     0
SMALL
USER_CHARGES


@<TRIPOS>ATOM
      1 CAA        79.9352   59.0593   34.4208 a2         1 CLA     -0.055900
      2 CAB        79.1653   62.2757   43.6589 c8         1 CLA     -0.148500
      3 CAC        72.4349   58.0955   42.2387 a2         1 CLA     -0.012600
      4 CAD        75.9332   56.0821   35.2718 ck         1 CLA      0.398800
      5 NA         78.7278   59.2464   37.7438 ns         1 CLA     -0.225500
      6 CBA        81.2269   58.9828   33.5718 a2         1 CLA     -0.135000
      7 CBB        79.8895   63.3450   44.1440 c0         1 CLA     -0.395200
      8 CBC        72.8020   56.6831   42.7359 a3         1 CLA     -0.037700
      9 CBD        77.3872   56.6814   35.0871 a1         1 CLA     -0.053900
     10 NB         78.3573   60.6337   40.3753 nm         1 CLA     -0.295700
     11 OBD        75.4245   55.3010   34.4779 o2         1 CLA     -0.494600
     12 CGA        81.5442   57.5646   33.1084 c4         1 CLA      0.827000
     13 CGD        78.3775   55.5299   34.7412 c4         1 CLA      0.655300
     14 ND         75.8014   58.2366   37.9625 nm         1 CLA     -0.291600
     15 CED        79.3570   53.4885   35.4559 a3         1 CLA      0.005400
     16 CHA        77.5631   57.6966   36.2576 cs         1 CLA     -0.123800
     17 CHB        80.3374   60.7655   38.9258 aa         1 CLA     -0.291900
     18 CHC        76.7920   60.6401   42.2857 aa         1 CLA     -0.090400
     19 CHD        73.8624   57.9798   39.4123 aa         1 CLA     -0.052000
     20 CMA        82.1044   58.8053   37.3032 a3         1 CLA     -0.230700
     21 CMB        81.5083   62.4618   41.2884 a3         1 CLA     -0.180800
     22 CMC        74.3724   60.3503   43.9665 a3         1 CLA     -0.134000
     23 CMD        72.9966   55.7722   37.2294 a3         1 CLA     -0.141100
     24 C1         82.5968   55.5559   34.0589 a2         1 CLA      0.023000
     25 C1A        78.6507   58.5440   36.5728 ac         1 CLA     -0.015100
     26 C1B        79.6739   61.0796   40.1119 cr         1 CLA      0.054700
     27 C1C        75.5903   60.0034   41.8021 cn         1 CLA     -0.005600
     28 C1D        74.5763   57.6498   38.2349 ap         1 CLA     -0.047300
     29 O1A        81.5766   57.2233   31.9326 o2         1 CLA     -0.610800
     30 O1D        79.0208   55.5759   33.7231 o2         1 CLA     -0.558200
     31 C2         83.3109   55.2989   35.3033 c8         1 CLA     -0.325100
     32 C2A        80.0145   58.5574   35.8839 a1         1 CLA      0.098600
     33 C2B        80.1481   61.8404   41.2425 cb         1 CLA      0.088500
     34 C2C        74.4302   59.7509   42.5690 cb         1 CLA      0.053700
     35 C2D        74.2230   56.6366   37.2827 cb         1 CLA      0.058900
     36 O2A        81.9213   56.8623   34.2204 o1         1 CLA     -0.437200
     37 O2D        78.4626   54.6447   35.7166 o1         1 CLA     -0.357600
     38 C3         84.2817   54.3806   35.3565 c5         1 CLA      0.031200
     39 C3A        80.8165   59.4948   36.7392 a1         1 CLA      0.166800
     40 C3B        79.1915   61.6959   42.2581 cb         1 CLA      0.035000
     41 C3C        73.6285   58.8592   41.8125 cb         1 CLA     -0.089900
     42 C3D        75.3648   56.6503   36.4436 cb         1 CLA     -0.035900
     43 C4         84.0467   52.9688   35.6654 a3         1 CLA     -0.053300
     44 C4A        79.9178   59.8996   37.8577 ac         1 CLA      0.001800
     45 C4B        78.0395   61.0196   41.6423 cn         1 CLA     -0.020900
     46 C4C        74.3239   58.7843   40.5023 cr         1 CLA     -0.044400
     47 C4D        76.3212   57.6316   36.9128 c6         1 CLA     -0.046000
     48 C5         85.7024   54.8445   34.9779 a2         1 CLA     -0.070400
     49 C6         86.3905   55.9375   35.7468 a2         1 CLA      0.043900
     50 C7         86.3226   55.7885   37.2953 a2         1 CLA     -0.150000
     51 C8         87.1385   56.9204   38.1355 a1         1 CLA      0.064200
     52 C9         88.5806   56.8419   37.7200 a3         1 CLA     -0.259300
     53 C10        86.9591   56.8110   39.6623 a2         1 CLA     -0.071900
     54 C11        87.0369   58.0042   40.5672 a2         1 CLA      0.014500
     55 C12        87.3885   57.5949   42.0286 a2         1 CLA     -0.112100
     56 C13        87.1279   58.7757   43.0316 a1         1 CLA      0.089200
     57 C14        88.2041   59.8916   43.0167 a3         1 CLA     -0.239100
     58 C15        86.8364   58.4484   44.4684 a2         1 CLA     -0.102200
     59 C16        85.5005   57.6009   44.6420 a2         1 CLA      0.023900
     60 C17        85.1971   57.2088   46.1142 a2         1 CLA     -0.105700
     61 C18        85.2773   58.3434   47.1810 a1         1 CLA      0.206800
     62 C19        84.3645   59.5597   46.9177 a3         1 CLA     -0.280100
     63 C20        84.9871   57.7424   48.6615 a3         1 CLA     -0.280100
     64 NC         75.4938   59.5019   40.5169 nx         1 CLA     -0.309200
     65 MG         77.0335   59.6459   39.0390 mg         1 CLA      0.895000
     66 HMD3       72.6969   55.3676   38.2087 dc         1 CLA      0.064300
     67 HMD2       72.1470   56.3444   36.8496 dc         1 CLA      0.064300
     68 HMD1       73.1579   54.9808   36.5291 dc         1 CLA      0.064300
     69 HMC3       74.8124   61.3927   43.9653 dc         1 CLA      0.052100
     70 HMC2       73.3700   60.3311   44.4827 dc         1 CLA      0.052100
     71 HMC1       75.0270   59.7940   44.6582 dc         1 CLA      0.052100
     72 HMB3       82.1611   61.8710   41.9066 dc         1 CLA      0.063600
     73 HMB2       81.9460   62.6542   40.2978 dc         1 CLA      0.063600
     74 HMB1       81.2776   63.3916   41.6848 dc         1 CLA      0.063600
     75 HMA3       81.9455   58.6712   38.3863 dc         1 CLA      0.058300
     76 HMA2       82.3839   57.9663   36.7438 dc         1 CLA      0.058300
     77 HMA1       82.9224   59.4819   37.1728 dc         1 CLA      0.058300
     78 HED3       78.9874   52.8024   34.6782 dc         1 CLA      0.079300
     79 HED2       80.3177   53.9207   35.1532 dc         1 CLA      0.079300
     80 HED1       79.4342   52.9731   36.4159 dc         1 CLA      0.079300
     81 HBC3       73.1945   56.8129   43.7340 dc         1 CLA      0.016300
     82 HBC2       71.9970   56.0073   42.8024 dc         1 CLA      0.016300
     83 HBC1       73.6107   56.2072   42.1549 dc         1 CLA      0.016300
     84 HBB2       79.8117   63.8003   45.1621 da         1 CLA      0.183000
     85 HBB1       80.7467   63.7854   43.6117 da         1 CLA      0.183000
     86 HBA2       81.2423   59.5720   32.6775 dc         1 CLA      0.029400
     87 HBA1       82.1043   59.3363   34.1104 dc         1 CLA      0.029400
     88 HAC2       71.9297   58.6185   43.0204 dc         1 CLA      0.029300
     89 HAC1       71.6951   57.9996   41.4673 dc         1 CLA      0.029300
     90 HAA2       79.2332   58.4315   33.7733 dc         1 CLA      0.028700
     91 HAA1       79.5760   60.1142   34.3405 dc         1 CLA      0.028700
     92 H203       83.9420   57.4946   48.6514 dc         1 CLA      0.065600
     93 H202       85.5793   56.8580   48.7151 dc         1 CLA      0.065600
     94 H201       85.2667   58.4000   49.4564 dc         1 CLA      0.065600
     95 H193       84.5632   60.0708   45.9247 dc         1 CLA      0.065600
     96 H192       83.2352   59.3935   46.9806 dc         1 CLA      0.065600
     97 H191       84.5111   60.2752   47.6934 dc         1 CLA      0.065600
     98 H172       84.2002   56.7511   46.1281 dc         1 CLA      0.027600
     99 H171       85.8664   56.4136   46.4516 dc         1 CLA      0.027600
    100 H162       84.6754   58.2210   44.3000 dc         1 CLA      0.002900
    101 H161       85.4946   56.6026   44.0646 dc         1 CLA      0.002900
    102 H152       87.7193   57.9542   44.8428 dc         1 CLA      0.029100
    103 H151       86.8295   59.3666   44.9492 dc         1 CLA      0.029100
    104 H143       88.3641   60.1789   42.0376 dc         1 CLA      0.063600
    105 H142       87.9075   60.8037   43.5492 dc         1 CLA      0.063600
    106 H141       89.0433   59.4938   43.5598 dc         1 CLA      0.063600
    107 H122       86.6717   56.7759   42.3421 dc         1 CLA      0.032500
    108 H121       88.4411   57.3700   41.9914 dc         1 CLA      0.032500
    109 H112       87.7415   58.6576   40.2436 dc         1 CLA      0.006600
    110 H111       86.1253   58.6807   40.5599 dc         1 CLA      0.006600
    111 H102       85.9612   56.4237   39.8472 dc         1 CLA      0.024100
    112 H101       87.6588   56.0179   39.9021 dc         1 CLA      0.024100
    113 HHD        72.9549   57.4884   39.3965 da         1 CLA      0.174300
    114 HHC        76.7425   60.8051   43.3328 da         1 CLA      0.136800
    115 HHB        81.3466   61.0687   38.7964 da         1 CLA      0.138300
    116 HBD        77.3453   57.2662   34.1732 dc         1 CLA      0.107700
    117 HAB        78.3529   61.8630   44.2637 da         1 CLA      0.155200
    118 H93        89.2697   57.3263   38.3696 dc         1 CLA      0.069500
    119 H92        88.8309   55.8030   37.6733 dc         1 CLA      0.069500
    120 H91        88.5939   57.2973   36.7265 dc         1 CLA      0.069500
    121 H8         86.6814   57.8431   37.7570 dc         1 CLA      0.029300
    122 H72        85.2408   55.8671   37.5761 dc         1 CLA      0.044400
    123 H71        86.7674   54.8081   37.5513 dc         1 CLA      0.044400
    124 H62        87.4880   55.9283   35.5092 dc         1 CLA      0.015600
    125 H61        86.1053   56.9584   35.4186 dc         1 CLA      0.015600
    126 H52        86.3490   54.0311   35.3508 dc         1 CLA      0.033200
    127 H51        85.7711   54.9982   33.9084 dc         1 CLA      0.033200
    128 H43        82.9245   52.7902   35.6651 dc         1 CLA      0.037000
    129 H42        84.5951   52.3162   34.9244 dc         1 CLA      0.037000
    130 H41        84.4699   52.7192   36.7154 dc         1 CLA      0.037000
    131 H3A        81.0211   60.5017   36.3331 dc         1 CLA      0.041100
    132 H2A        80.4190   57.5601   36.0884 dc         1 CLA      0.083100
    133 H2         82.9281   55.7079   36.2171 da         1 CLA      0.180900
    134 H18        86.2642   58.7606   47.2183 dc         1 CLA     -0.003900
    135 H13        86.1642   59.1307   42.6111 dc         1 CLA      0.019700
    136 H12        81.9197   54.7446   33.7814 dc         1 CLA      0.120400
    137 H11        83.3428   55.6357   33.3008 dc         1 CLA      0.120400
    138 C1         69.1971   62.3818   49.8299 Z1         2 LUT      0.509236
    139 C2         67.9031   62.0790   50.5697 Z2         2 LUT     -0.434695
    140 C3         66.8935   63.2354   50.7534 Z3         2 LUT      0.437453
    141 O3         66.6530   63.4212   52.1405 S1         2 LUT     -0.547129
    142 C4         67.2936   64.4913   49.9799 Z4         2 LUT     -0.468603
    143 C5         67.9976   64.1792   48.6665 Z5         2 LUT      0.279246
    144 C6         68.9456   63.2331   48.5475 Z6         2 LUT     -0.305473
    145 C7         69.5113   62.7079   47.2603 Z7         2 LUT      0.069402
    146 C8         70.4940   63.3039   46.5075 Z8         2 LUT     -0.191631
    147 C9         70.9884   62.9196   45.2336 Z9         2 LUT      0.196698
    148 C10        72.0385   63.6703   44.7751 Y1         2 LUT     -0.208611
    149 C11        72.8529   63.5630   43.6009 Y2         2 LUT      0.030784
    150 C12        74.0420   64.1831   43.4349 Y3         2 LUT     -0.220316
    151 C13        74.9831   64.1304   42.3743 Y4         2 LUT      0.215937
    152 C14        76.1607   64.8448   42.5855 Y5         2 LUT     -0.185793
    153 C15        77.3461   65.0075   41.8202 Y6         2 LUT     -0.057835
    154 C16        69.7462   61.0407   49.4849 Y7         2 LUT     -0.405615
    155 C17        70.0873   63.1916   50.7698 Y7         2 LUT     -0.405615
    156 C18        67.5063   65.0721   47.5182 Y9         2 LUT     -0.369639
    157 C19        70.4934   61.7140   44.4175 W1         2 LUT     -0.333362
    158 C20        74.6270   63.6103   41.0009 W2         2 LUT     -0.323439
    159 C21        88.5613   66.5513   35.8803 Z1         2 LUT      0.406104
    160 C22        89.1047   65.8380   34.6013 Z2         2 LUT     -0.404965
    161 C23        89.1789   66.7446   33.3422 Z3         2 LUT      0.391255
    162 O23        89.6062   65.7654   32.4071 S1         2 LUT     -0.528210
    163 C24        87.9024   67.4938   33.2271 W6         2 LUT     -0.258361
    164 C25        86.9596   67.6535   34.1329 Z5         2 LUT      0.133546
    165 C26        87.1713   67.0311   35.5656 W8         2 LUT     -0.147008
    166 C27        86.5068   67.7016   36.7604 Z7         2 LUT      0.023843
    167 C28        85.3282   67.2209   37.2051 Z8         2 LUT     -0.216987
    168 C29        84.6623   67.5793   38.5200 Z9         2 LUT      0.206524
    169 C30        83.4747   66.9674   38.8813 Y1         2 LUT     -0.215556
    170 C31        82.6330   67.1684   39.9610 Y2         2 LUT      0.025142
    171 C32        81.5201   66.4694   40.2252 Y3         2 LUT     -0.212209
    172 C33        80.6126   66.6077   41.2837 Y4         2 LUT      0.240937
    173 C34        79.5056   65.7757   41.2862 Y5         2 LUT     -0.218862
    174 C35        78.3944   65.8174   42.1071 Y6         2 LUT     -0.023547
    175 C36        89.5269   67.7623   36.0952 Y7         2 LUT     -0.393485
    176 C37        88.7295   65.6168   37.1595 Y7         2 LUT     -0.393485
    177 C38        85.6891   68.3105   33.9175 Y9         2 LUT     -0.387526
    178 C39        85.2529   68.7028   39.3489 W1         2 LUT     -0.322618
    179 C40        80.8643   67.6466   42.3785 W2         2 LUT     -0.358472
    180 H403       80.5302   68.6277   42.0944 R7         2 LUT      0.097720
    181 H402       80.4508   67.3335   43.3243 R7         2 LUT      0.097720
    182 H401       81.9032   67.6749   42.6645 R7         2 LUT      0.097720
    183 H393       84.7964   68.7913   40.3721 R4         2 LUT      0.082505
    184 H392       86.2884   68.5915   39.4740 R4         2 LUT      0.082505
    185 H391       85.1353   69.6820   38.8639 R4         2 LUT      0.082505
    186 H383       85.4324   68.4010   32.7767 R1         2 LUT      0.104030
    187 H382       84.7973   67.7040   34.2031 R1         2 LUT      0.104030
    188 H381       85.5696   69.2569   34.3837 R1         2 LUT      0.104030
    189 H373       88.2197   64.6473   37.1219 T4         2 LUT      0.089537
    190 H372       89.8170   65.4852   37.4673 T4         2 LUT      0.089537
    191 H371       88.1950   66.1819   37.9236 T4         2 LUT      0.089537
    192 H363       89.2912   68.4396   36.8851 T4         2 LUT      0.089537
    193 H362       90.5751   67.5043   36.0839 T4         2 LUT      0.089537
    194 H361       89.4832   68.4656   35.2528 T4         2 LUT      0.089537
    195 H222       90.1700   65.5204   34.8216 U2         2 LUT      0.127376
    196 H221       88.6415   64.8724   34.4214 U2         2 LUT      0.127376
    197 H203       73.8334   64.2285   40.5296 R7         2 LUT      0.087068
    198 H202       75.4081   63.5781   40.2459 R7         2 LUT      0.087068
    199 H201       74.2158   62.5914   41.1085 R7         2 LUT      0.087068
    200 H193       70.8706   60.7440   44.7834 R4         2 LUT      0.089716
    201 H192       69.3938   61.4968   44.5031 R4         2 LUT      0.089716
    202 H191       70.6596   61.7921   43.3416 R4         2 LUT      0.089716
    203 H183       66.5338   65.4699   47.5907 R1         2 LUT      0.094572
    204 H182       68.2529   65.7908   47.2701 R1         2 LUT      0.094572
    205 H181       67.5391   64.5078   46.5635 R1         2 LUT      0.094572
    206 H173       71.0102   63.5725   50.3041 T4         2 LUT      0.093752
    207 H172       69.5712   64.0383   51.2521 T4         2 LUT      0.093752
    208 H171       70.4271   62.5164   51.6106 T4         2 LUT      0.093752
    209 H163       70.7030   61.0643   48.9385 T4         2 LUT      0.093752
    210 H162       69.8762   60.2811   50.3450 T4         2 LUT      0.093752
    211 H161       69.0251   60.4618   48.7885 T4         2 LUT      0.093752
    212 HO3        67.4189   63.6698   52.6361 Q1         2 LUT      0.300121
    213 H8         70.8689   64.2413   46.8920 U7         2 LUT      0.080784
    214 H7         69.0043   61.7823   46.9583 U6         2 LUT      0.042190
    215 H42        66.4849   65.1800   49.9289 U5         2 LUT      0.145166
    216 H41        68.0095   65.2222   50.4557 U5         2 LUT      0.145166
    217 H35        78.2828   66.4369   42.9585 T3         2 LUT      0.077919
    218 H34        79.5687   65.0288   40.4820 T2         2 LUT      0.073626
    219 H32        81.2591   65.6260   39.5803 T1         2 LUT      0.092510
    220 H31        82.9536   67.9106   40.5767 U9         2 LUT      0.070048
    221 H30        83.1456   66.2251   38.1587 U8         2 LUT      0.085442
    222 H3         65.9070   63.0506   50.2864 U3         2 LUT     -0.031596
    223 H28        84.7535   66.5419   36.5617 U7         2 LUT      0.084728
    224 H27        87.1217   68.3668   37.3848 U6         2 LUT      0.087291
    225 H26        86.6593   66.1215   35.2332 Q6         2 LUT      0.075325
    226 H24        87.6479   67.8451   32.1732 Q5         2 LUT      0.094482
    227 H23        90.0633   67.3524   33.6000 U3         2 LUT     -0.024869
    228 H22        67.3587   61.3415   49.9977 U2         2 LUT      0.127376
    229 H21        68.2401   61.6261   51.5360 U2         2 LUT      0.127376
    230 H15        77.4890   64.4029   40.9340 T3         2 LUT      0.093200
    231 H14        76.3151   65.3943   43.5141 T2         2 LUT      0.068865
    232 H12        74.2715   64.7274   44.3320 T1         2 LUT      0.095507
    233 H11        72.4789   62.9095   42.8304 U9         2 LUT      0.068930
    234 H10        72.3866   64.4147   45.4482 U8         2 LUT      0.083911
    235 H1         89.4245   66.1319   31.5602 Q1         2 LUT      0.297311
@<TRIPOS>BOND
    1     6     1 1
    2     7     2 1
    3     8     3 1
    4     9     4 1
    5    11     4 1
    6    12     6 1
    7    13     9 1
    8    16     9 1
    9    25     5 1
   10    25    16 1
   11    26    10 1
   12    26    17 1
   13    27    18 1
   14    28    14 1
   15    28    19 1
   16    29    12 1
   17    30    13 1
   18    31    24 1
   19    32     1 1
   20    32    25 1
   21    33    21 1
   22    33    26 1
   23    34    22 1
   24    34    27 1
   25    35    23 1
   26    35    28 1
   27    36    12 1
   28    36    24 1
   29    37    13 1
   30    37    15 1
   31    38    31 1
   32    39    20 1
   33    39    32 1
   34    40     2 1
   35    40    33 1
   36    41     3 1
   37    41    34 1
   38    42     4 1
   39    42    35 1
   40    43    38 1
   41    44     5 1
   42    44    17 1
   43    44    39 1
   44    45    10 1
   45    45    18 1
   46    45    40 1
   47    46    19 1
   48    46    41 1
   49    47    14 1
   50    47    16 1
   51    47    42 1
   52    48    38 1
   53    49    48 1
   54    50    49 1
   55    51    50 1
   56    52    51 1
   57    53    51 1
   58    54    53 1
   59    55    54 1
   60    56    55 1
   61    57    56 1
   62    58    56 1
   63    59    58 1
   64    60    59 1
   65    61    60 1
   66    62    61 1
   67    63    61 1
   68    64    27 1
   69    64    46 1
   70    65     5 1
   71    65    10 1
   72    65    64 1
   73    65    14 1
   74    66    23 1
   75    67    23 1
   76    68    23 1
   77    69    22 1
   78    70    22 1
   79    71    22 1
   80    72    21 1
   81    73    21 1
   82    74    21 1
   83    75    20 1
   84    76    20 1
   85    77    20 1
   86    78    15 1
   87    79    15 1
   88    80    15 1
   89    81     8 1
   90    82     8 1
   91    83     8 1
   92    84     7 1
   93    85     7 1
   94    86     6 1
   95    87     6 1
   96    88     3 1
   97    89     3 1
   98    90     1 1
   99    91     1 1
  100    92    63 1
  101    93    63 1
  102    94    63 1
  103    95    62 1
  104    96    62 1
  105    97    62 1
  106    98    60 1
  107    99    60 1
  108   100    59 1
  109   101    59 1
  110   102    58 1
  111   103    58 1
  112   104    57 1
  113   105    57 1
  114   106    57 1
  115   107    55 1
  116   108    55 1
  117   109    54 1
  118   110    54 1
  119   111    53 1
  120   112    53 1
  121   113    19 1
  122   114    18 1
  123   115    17 1
  124   116     9 1
  125   117     2 1
  126   118    52 1
  127   119    52 1
  128   120    52 1
  129   121    51 1
  130   122    50 1
  131   123    50 1
  132   124    49 1
  133   125    49 1
  134   126    48 1
  135   127    48 1
  136   128    43 1
  137   129    43 1
  138   130    43 1
  139   131    39 1
  140   132    32 1
  141   133    31 1
  142   134    61 1
  143   135    56 1
  144   136    24 1
  145   137    24 1
  146   139   138 1
  147   140   139 1
  148   141   140 1
  149   142   140 1
  150   143   142 1
  151   144   138 1
  152   144   143 1
  153   145   144 1
  154   146   145 1
  155   147   146 1
  156   148   147 1
  157   149   148 1
  158   150   149 1
  159   151   150 1
  160   152   151 1
  161   153   152 1
  162   154   138 1
  163   155   138 1
  164   156   143 1
  165   157   147 1
  166   158   151 1
  167   160   159 1
  168   161   160 1
  169   162   161 1
  170   163   161 1
  171   164   163 1
  172   165   159 1
  173   165   164 1
  174   166   165 1
  175   167   166 1
  176   168   167 1
  177   169   168 1
  178   170   169 1
  179   171   170 1
  180   172   171 1
  181   173   172 1
  182   174   153 1
  183   174   173 1
  184   175   159 1
  185   176   159 1
  186   177   164 1
  187   178   168 1
  188   179   172 1
  189   180   179 1
  190   181   179 1
  191   182   179 1
  192   183   178 1
  193   184   178 1
  194   185   178 1
  195   186   177 1
  196   187   177 1
  197   188   177 1
  198   189   176 1
  199   190   176 1
  200   191   176 1
  201   192   175 1
  202   193   175 1
  203   194   175 1
  204   195   160 1
  205   196   160 1
  206   197   158 1
  207   198   158 1
  208   199   158 1
  209   200   157 1
  210   201   157 1
  211   202   157 1
  212   203   156 1
  213   204   156 1
  214   205   156 1
  215   206   155 1
  216   207   155 1
  217   208   155 1
  218   209   154 1
  219   210   154 1
  220   211   154 1
  221   212   141 1
  222   213   146 1
  223   214   145 1
  224   215   142 1
  225   216   142 1
  226   217   174 1
  227   218   173 1
  228   219   171 1
  229   220   170 1
  230   221   169 1
  231   222   140 1
  232   223   167 1
  233   224   166 1
  234   225   165 1
  235   226   163 1
  236   227   161 1
  237   228   139 1
  238   229   139 1
  239   230   153 1
  240   231   152 1
  241   232   150 1
  242   233   149 1
  243   234   148 1
  244   235   162 1
  245   65    153 1
  246   65    174 1
@<TRIPOS>SUBSTRUCTURE
      1 CLA               1 ****               0 ****  **** 
      2 LUT             138 ****               0 ****  **** 
