@<TRIPOS>MOLECULE
Cpptraj generated mol2 file.
  235   246     2     0     0
SMALL
USER_CHARGES


@<TRIPOS>ATOM
      1 CAA        79.7310   58.8082   33.3369 a2         1 CLA     -0.055900
      2 CAB        79.3776   62.5292   42.3412 c8         1 CLA     -0.148500
      3 CAC        72.7475   57.9227   41.8198 a2         1 CLA     -0.012600
      4 CAD        75.5476   56.1262   34.2993 ck         1 CLA      0.398800
      5 NA         78.4725   59.1226   36.7112 ns         1 CLA     -0.225500
      6 CBA        80.9824   58.5685   32.5104 a2         1 CLA     -0.135000
      7 CBB        80.5850   62.8873   42.8444 c0         1 CLA     -0.395200
      8 CBC        72.9609   56.4623   42.3358 a3         1 CLA     -0.037700
      9 CBD        76.9890   56.7146   34.0410 a1         1 CLA     -0.053900
     10 NB         78.1875   60.7000   39.2535 nm         1 CLA     -0.295700
     11 OBD        74.8737   55.5031   33.4874 o2         1 CLA     -0.494600
     12 CGA        81.3835   57.1888   32.1982 c4         1 CLA      0.827000
     13 CGD        77.9525   55.6670   33.6991 c4         1 CLA      0.655300
     14 ND         75.8084   57.9728   37.2821 nm         1 CLA     -0.291600
     15 CED        78.4865   53.3405   34.3257 a3         1 CLA      0.005400
     16 CHA        77.3522   57.5237   35.3083 cs         1 CLA     -0.123800
     17 CHB        79.9883   60.7850   37.7014 aa         1 CLA     -0.291900
     18 CHC        77.0346   60.6715   41.3687 aa         1 CLA     -0.090400
     19 CHD        73.9104   57.7661   38.8510 aa         1 CLA     -0.052000
     20 CMA        82.0073   59.0216   36.2327 a3         1 CLA     -0.230700
     21 CMB        81.3441   62.6001   39.7582 a3         1 CLA     -0.180800
     22 CMC        74.6588   59.8969   43.4467 a3         1 CLA     -0.134000
     23 CMD        72.7920   55.8710   36.5548 a3         1 CLA     -0.141100
     24 C1         82.2727   55.2663   33.2542 a2         1 CLA      0.023000
     25 C1A        78.4660   58.3483   35.5962 ac         1 CLA     -0.015100
     26 C1B        79.4327   61.1569   38.9054 cr         1 CLA      0.054700
     27 C1C        75.9658   59.8320   41.0716 cn         1 CLA     -0.005600
     28 C1D        74.5836   57.4667   37.6408 ap         1 CLA     -0.047300
     29 O1A        81.1965   56.5731   31.1571 o2         1 CLA     -0.610800
     30 O1D        78.6384   55.6024   32.6742 o2         1 CLA     -0.558200
     31 C2         82.8635   55.0663   34.5542 c8         1 CLA     -0.325100
     32 C2A        79.8305   58.5008   34.8568 a1         1 CLA      0.098600
     33 C2B        80.0046   62.0766   39.8695 cb         1 CLA      0.088500
     34 C2C        74.8803   59.4665   42.0181 cb         1 CLA      0.053700
     35 C2D        74.0437   56.7266   36.5434 cb         1 CLA      0.058900
     36 O2A        81.9044   56.6705   33.2879 o1         1 CLA     -0.437200
     37 O2D        77.9936   54.6700   34.6059 o1         1 CLA     -0.357600
     38 C3         83.9778   54.4182   34.8686 c5         1 CLA      0.031200
     39 C3A        80.6540   59.5498   35.6760 a1         1 CLA      0.166800
     40 C3B        79.1569   62.0603   40.9487 cb         1 CLA      0.035000
     41 C3C        73.9870   58.5876   41.2895 cb         1 CLA     -0.089900
     42 C3D        75.1360   56.6722   35.6262 cb         1 CLA     -0.035900
     43 C4         84.0893   52.9237   35.2462 a3         1 CLA     -0.053300
     44 C4A        79.6437   59.9230   36.7170 ac         1 CLA      0.001800
     45 C4B        78.0435   61.1429   40.5436 cn         1 CLA     -0.020900
     46 C4C        74.5533   58.4317   39.9408 cr         1 CLA     -0.044400
     47 C4D        76.1776   57.4477   36.0941 c6         1 CLA     -0.046000
     48 C5         85.3062   55.0844   34.8112 a2         1 CLA     -0.070400
     49 C6         85.5471   56.2493   35.7814 a2         1 CLA      0.043900
     50 C7         85.4030   55.8019   37.2808 a2         1 CLA     -0.150000
     51 C8         85.5201   56.9394   38.2546 a1         1 CLA      0.064200
     52 C9         86.7772   57.7113   38.1238 a3         1 CLA     -0.259300
     53 C10        85.3611   56.3489   39.6952 a2         1 CLA     -0.071900
     54 C11        85.4885   57.2638   40.9425 a2         1 CLA      0.014500
     55 C12        85.0092   56.4997   42.1575 a2         1 CLA     -0.112100
     56 C13        84.9322   57.4186   43.4837 a1         1 CLA      0.089200
     57 C14        86.3151   57.9130   43.9665 a3         1 CLA     -0.239100
     58 C15        84.1014   56.7923   44.6837 a2         1 CLA     -0.102200
     59 C16        82.5809   56.7843   44.5054 a2         1 CLA      0.023900
     60 C17        81.8732   58.1622   44.7827 a2         1 CLA     -0.105700
     61 C18        80.3287   58.1707   44.5229 a1         1 CLA      0.206800
     62 C19        79.6337   57.5001   45.7562 a3         1 CLA     -0.280100
     63 C20        79.7888   59.6193   44.3189 a3         1 CLA     -0.280100
     64 NC         75.7549   59.1614   39.8533 nx         1 CLA     -0.309200
     65 MG         76.9256   59.2961   38.2110 mg         1 CLA      0.895000
     66 HMD3       73.0604   55.1273   35.8358 dc         1 CLA      0.064300
     67 HMD2       72.5926   55.2903   37.4403 dc         1 CLA      0.064300
     68 HMD1       71.9722   56.4908   36.1490 dc         1 CLA      0.064300
     69 HMC3       75.3828   60.6601   43.5901 dc         1 CLA      0.052100
     70 HMC2       73.6332   60.2647   43.5166 dc         1 CLA      0.052100
     71 HMC1       74.7514   59.0750   44.0811 dc         1 CLA      0.052100
     72 HMB3       81.5727   62.8245   38.6860 dc         1 CLA      0.063600
     73 HMB2       81.3017   63.5076   40.3168 dc         1 CLA      0.063600
     74 HMB1       82.1367   61.9577   40.1714 dc         1 CLA      0.063600
     75 HMA3       81.9255   58.1855   36.9646 dc         1 CLA      0.058300
     76 HMA2       82.5183   58.7824   35.3161 dc         1 CLA      0.058300
     77 HMA1       82.4700   59.7370   36.7555 dc         1 CLA      0.058300
     78 HED3       79.5912   53.3635   34.1368 dc         1 CLA      0.079300
     79 HED2       78.3381   52.7239   35.1660 dc         1 CLA      0.079300
     80 HED1       77.9355   53.0037   33.4858 dc         1 CLA      0.079300
     81 HBC3       73.1008   55.8690   41.4527 dc         1 CLA      0.016300
     82 HBC2       73.8421   56.4892   43.0444 dc         1 CLA      0.016300
     83 HBC1       72.0322   56.1537   42.8580 dc         1 CLA      0.016300
     84 HBB2       80.6055   62.9307   43.9693 da         1 CLA      0.183000
     85 HBB1       81.5303   62.8130   42.2649 da         1 CLA      0.183000
     86 HBA2       80.7875   59.1117   31.6294 dc         1 CLA      0.029400
     87 HBA1       81.9020   59.0614   32.8631 dc         1 CLA      0.029400
     88 HAC2       72.4368   58.3671   42.7277 dc         1 CLA      0.029300
     89 HAC1       71.8782   58.0024   41.1004 dc         1 CLA      0.029300
     90 HAA2       78.9634   58.2858   32.7966 dc         1 CLA      0.028700
     91 HAA1       79.5207   59.8331   33.3161 dc         1 CLA      0.028700
     92 H203       80.3545   60.1521   43.5366 dc         1 CLA      0.065600
     93 H202       78.6934   59.5968   44.0149 dc         1 CLA      0.065600
     94 H201       79.9242   60.2367   45.2283 dc         1 CLA      0.065600
     95 H193       79.9366   56.4648   45.7565 dc         1 CLA      0.065600
     96 H192       79.8553   58.0507   46.6278 dc         1 CLA      0.065600
     97 H191       78.5252   57.5837   45.6051 dc         1 CLA      0.065600
     98 H172       81.9389   58.4761   45.7516 dc         1 CLA      0.027600
     99 H171       82.2659   58.9587   44.1962 dc         1 CLA      0.027600
    100 H162       82.3887   56.4792   43.4565 dc         1 CLA      0.002900
    101 H161       82.2304   56.0606   45.1971 dc         1 CLA      0.002900
    102 H152       84.4960   55.7963   44.8683 dc         1 CLA      0.029100
    103 H151       84.2059   57.4835   45.5164 dc         1 CLA      0.029100
    104 H143       87.0807   57.1112   44.0853 dc         1 CLA      0.063600
    105 H142       86.5983   58.6258   43.1726 dc         1 CLA      0.063600
    106 H141       86.4042   58.4547   44.8962 dc         1 CLA      0.063600
    107 H122       84.0754   56.0445   41.8587 dc         1 CLA      0.032500
    108 H121       85.6769   55.6895   42.4594 dc         1 CLA      0.032500
    109 H112       86.5108   57.5445   41.1669 dc         1 CLA      0.006600
    110 H111       84.8420   58.1098   40.7895 dc         1 CLA      0.006600
    111 H102       84.4108   55.7872   39.6067 dc         1 CLA      0.024100
    112 H101       86.2501   55.6582   39.7685 dc         1 CLA      0.024100
    113 HHD        72.9323   57.4143   39.1456 da         1 CLA      0.174300
    114 HHC        76.9180   61.2212   42.3179 da         1 CLA      0.136800
    115 HHB        80.9221   61.2487   37.4438 da         1 CLA      0.138300
    116 HBD        76.8307   57.4272   33.2094 dc         1 CLA      0.107700
    117 HAB        78.4973   62.5277   43.0591 da         1 CLA      0.155200
    118 H93        86.9408   58.3108   38.9572 dc         1 CLA      0.069500
    119 H92        87.6408   56.9766   37.9848 dc         1 CLA      0.069500
    120 H91        86.7376   58.3203   37.2468 dc         1 CLA      0.069500
    121 H8         84.7766   57.7313   38.1838 dc         1 CLA      0.029300
    122 H72        84.4645   55.3700   37.4445 dc         1 CLA      0.044400
    123 H71        86.1106   55.0494   37.6213 dc         1 CLA      0.044400
    124 H62        86.5374   56.5691   35.6386 dc         1 CLA      0.015600
    125 H61        84.8582   57.0797   35.6995 dc         1 CLA      0.015600
    126 H52        85.9897   54.2996   35.0347 dc         1 CLA      0.033200
    127 H51        85.5683   55.5346   33.8856 dc         1 CLA      0.033200
    128 H43        83.1815   52.3661   35.1199 dc         1 CLA      0.037000
    129 H42        84.8551   52.4357   34.5929 dc         1 CLA      0.037000
    130 H41        84.3874   52.9387   36.3375 dc         1 CLA      0.037000
    131 H3A        81.0364   60.3262   35.0149 dc         1 CLA      0.041100
    132 H2A        80.3577   57.4949   34.8538 dc         1 CLA      0.083100
    133 H2         82.3481   55.5251   35.3261 da         1 CLA      0.180900
    134 H18        79.9869   57.6702   43.5937 dc         1 CLA     -0.003900
    135 H13        84.5072   58.4085   43.2227 dc         1 CLA      0.019700
    136 H12        81.4316   54.6392   33.1551 dc         1 CLA      0.120400
    137 H11        82.9080   55.1110   32.3778 dc         1 CLA      0.120400
    138 C1         69.1597   61.6205   48.9336 Z1         2 LUT      0.509236
    139 C2         67.6921   61.5652   49.5658 Z2         2 LUT     -0.434695
    140 C3         67.0446   62.8409   49.9025 Z3         2 LUT      0.437453
    141 O3         67.2285   63.3017   51.2849 S1         2 LUT     -0.547129
    142 C4         67.5730   63.9760   49.0295 Z4         2 LUT     -0.468603
    143 C5         68.1457   63.4509   47.6723 Z5         2 LUT      0.279246
    144 C6         68.9451   62.3960   47.6438 Z6         2 LUT     -0.305473
    145 C7         69.4715   61.7314   46.3648 Z7         2 LUT      0.069402
    146 C8         70.1959   62.3994   45.4593 Z8         2 LUT     -0.191631
    147 C9         70.9248   61.9035   44.2262 Z9         2 LUT      0.196698
    148 C10        71.9552   62.6631   43.6890 Y1         2 LUT     -0.208611
    149 C11        72.8075   62.5763   42.5091 Y2         2 LUT      0.030784
    150 C12        73.7716   63.5062   42.1981 Y3         2 LUT     -0.220316
    151 C13        74.7234   63.5328   41.0930 Y4         2 LUT      0.215937
    152 C14        75.8043   64.3955   41.1959 Y5         2 LUT     -0.185793
    153 C15        76.7947   64.5846   40.1793 Y6         2 LUT     -0.057835
    154 C16        69.5417   60.1513   48.8568 Y7         2 LUT     -0.405615
    155 C17        69.9935   62.1867   50.1107 Y7         2 LUT     -0.405615
    156 C18        67.5594   63.9828   46.4085 Y9         2 LUT     -0.369639
    157 C19        70.3780   60.7158   43.5386 W1         2 LUT     -0.333362
    158 C20        74.4563   62.7337   39.8493 W2         2 LUT     -0.323439
    159 C21        88.2685   65.7271   33.7906 Z1         2 LUT      0.406104
    160 C22        88.9088   65.3065   32.4314 Z2         2 LUT     -0.404965
    161 C23        88.9666   66.3543   31.3685 Z3         2 LUT      0.391255
    162 O23        89.2627   65.6483   30.1976 S1         2 LUT     -0.528210
    163 C24        87.6744   67.1534   31.3680 W6         2 LUT     -0.258361
    164 C25        86.7084   67.1601   32.3347 Z5         2 LUT      0.133546
    165 C26        86.8411   66.2937   33.6009 W8         2 LUT     -0.147008
    166 C27        86.2127   66.9472   34.9041 Z7         2 LUT      0.023843
    167 C28        85.0140   66.6527   35.4616 Z8         2 LUT     -0.216987
    168 C29        84.2852   67.1730   36.6103 Z9         2 LUT      0.206524
    169 C30        83.0466   66.5106   36.9348 Y1         2 LUT     -0.215556
    170 C31        82.2283   66.7894   38.0669 Y2         2 LUT      0.025142
    171 C32        81.1032   66.1009   38.3403 Y3         2 LUT     -0.212209
    172 C33        80.1863   66.1142   39.4311 Y4         2 LUT      0.240937
    173 C34        79.0803   65.2835   39.4730 Y5         2 LUT     -0.218862
    174 C35        77.9841   65.2451   40.3889 Y6         2 LUT     -0.023547
    175 C36        89.2572   66.7323   34.4174 Y7         2 LUT     -0.393485
    176 C37        88.1848   64.5556   34.7689 Y7         2 LUT     -0.393485
    177 C38        85.4163   67.9535   32.0445 Y9         2 LUT     -0.387526
    178 C39        84.8714   68.3131   37.4208 W1         2 LUT     -0.322618
    179 C40        80.6653   66.7962   40.6890 W2         2 LUT     -0.358472
    180 H403       79.8901   66.8384   41.4735 R7         2 LUT      0.097720
    181 H402       81.5499   66.3178   41.1743 R7         2 LUT      0.097720
    182 H401       80.9714   67.8198   40.4665 R7         2 LUT      0.097720
    183 H393       84.6831   68.1384   38.5079 R4         2 LUT      0.082505
    184 H392       85.8994   68.4075   37.3424 R4         2 LUT      0.082505
    185 H391       84.3940   69.2778   37.1390 R4         2 LUT      0.082505
    186 H383       85.5131   69.0270   32.0742 R1         2 LUT      0.104030
    187 H382       85.1339   67.7018   30.9728 R1         2 LUT      0.104030
    188 H381       84.6218   67.5895   32.6714 R1         2 LUT      0.104030
    189 H373       89.2511   64.2578   34.9866 T4         2 LUT      0.089537
    190 H372       87.8555   64.8212   35.7454 T4         2 LUT      0.089537
    191 H371       87.6167   63.6792   34.3847 T4         2 LUT      0.089537
    192 H363       89.2989   67.6278   33.7859 T4         2 LUT      0.089537
    193 H362       88.9037   67.0686   35.4122 T4         2 LUT      0.089537
    194 H361       90.2569   66.2773   34.5010 T4         2 LUT      0.089537
    195 H222       90.0241   65.0163   32.6021 U2         2 LUT      0.127376
    196 H221       88.3740   64.3571   32.1225 U2         2 LUT      0.127376
    197 H203       75.2941   62.3574   39.2434 R7         2 LUT      0.087068
    198 H202       73.8157   61.8831   39.9468 R7         2 LUT      0.087068
    199 H201       73.9573   63.4081   39.1442 R7         2 LUT      0.087068
    200 H193       70.9711   59.8114   43.5811 R4         2 LUT      0.089716
    201 H192       69.3907   60.4650   43.8745 R4         2 LUT      0.089716
    202 H191       70.3353   60.9078   42.4613 R4         2 LUT      0.089716
    203 H183       67.4812   63.2259   45.6357 R1         2 LUT      0.094572
    204 H182       66.5740   64.2117   46.6356 R1         2 LUT      0.094572
    205 H181       68.1781   64.7502   46.0241 R1         2 LUT      0.094572
    206 H173       69.5936   61.8419   51.1255 T4         2 LUT      0.093752
    207 H172       70.9309   61.7422   50.0039 T4         2 LUT      0.093752
    208 H171       70.1411   63.2367   50.1413 T4         2 LUT      0.093752
    209 H163       68.8016   59.4902   48.2963 T4         2 LUT      0.093752
    210 H162       70.5311   60.0340   48.4549 T4         2 LUT      0.093752
    211 H161       69.4641   59.6843   49.8719 T4         2 LUT      0.093752
    212 HO3        66.5514   62.9860   51.8534 Q1         2 LUT      0.300121
    213 H8         70.5412   63.3963   45.8109 U7         2 LUT      0.080784
    214 H7         69.3708   60.6553   46.2102 U6         2 LUT      0.042190
    215 H42        66.6583   64.6663   48.8827 U5         2 LUT      0.145166
    216 H41        68.3260   64.5015   49.6012 U5         2 LUT      0.145166
    217 H35        78.0304   65.8218   41.3229 T3         2 LUT      0.077919
    218 H34        79.0472   64.7211   38.5575 T2         2 LUT      0.073626
    219 H32        80.8285   65.3652   37.5779 T1         2 LUT      0.092510
    220 H31        82.5540   67.5226   38.8084 U9         2 LUT      0.070048
    221 H30        82.5656   65.6989   36.3856 U8         2 LUT      0.085442
    222 H3         65.9597   62.7707   49.6449 U3         2 LUT     -0.031596
    223 H28        84.6081   65.7834   35.0691 U7         2 LUT      0.084728
    224 H27        86.8178   67.7832   35.3537 U6         2 LUT      0.087291
    225 H26        86.2690   65.3914   33.3287 Q6         2 LUT      0.075325
    226 H24        87.5093   67.7835   30.5300 Q5         2 LUT      0.094482
    227 H23        89.8185   66.9049   31.7024 U3         2 LUT     -0.024869
    228 H22        67.0206   61.0767   48.8193 U2         2 LUT      0.127376
    229 H21        67.6297   60.9500   50.4464 U2         2 LUT      0.127376
    230 H15        76.6859   63.9948   39.2270 T3         2 LUT      0.093200
    231 H14        75.8880   64.9286   42.1643 T2         2 LUT      0.068865
    232 H12        73.9791   64.3022   42.9538 T1         2 LUT      0.095507
    233 H11        72.7587   61.6959   41.8637 U9         2 LUT      0.068930
    234 H10        72.1948   63.5313   44.3200 U8         2 LUT      0.083911
    235 H1         89.5290   66.2772   29.4917 Q1         2 LUT      0.297311
@<TRIPOS>BOND
    1     6     1 1
    2     7     2 1
    3     8     3 1
    4     9     4 1
    5    11     4 1
    6    12     6 1
    7    13     9 1
    8    16     9 1
    9    25     5 1
   10    25    16 1
   11    26    10 1
   12    26    17 1
   13    27    18 1
   14    28    14 1
   15    28    19 1
   16    29    12 1
   17    30    13 1
   18    31    24 1
   19    32     1 1
   20    32    25 1
   21    33    21 1
   22    33    26 1
   23    34    22 1
   24    34    27 1
   25    35    23 1
   26    35    28 1
   27    36    12 1
   28    36    24 1
   29    37    13 1
   30    37    15 1
   31    38    31 1
   32    39    20 1
   33    39    32 1
   34    40     2 1
   35    40    33 1
   36    41     3 1
   37    41    34 1
   38    42     4 1
   39    42    35 1
   40    43    38 1
   41    44     5 1
   42    44    17 1
   43    44    39 1
   44    45    10 1
   45    45    18 1
   46    45    40 1
   47    46    19 1
   48    46    41 1
   49    47    14 1
   50    47    16 1
   51    47    42 1
   52    48    38 1
   53    49    48 1
   54    50    49 1
   55    51    50 1
   56    52    51 1
   57    53    51 1
   58    54    53 1
   59    55    54 1
   60    56    55 1
   61    57    56 1
   62    58    56 1
   63    59    58 1
   64    60    59 1
   65    61    60 1
   66    62    61 1
   67    63    61 1
   68    64    27 1
   69    64    46 1
   70    65     5 1
   71    65    10 1
   72    65    64 1
   73    65    14 1
   74    66    23 1
   75    67    23 1
   76    68    23 1
   77    69    22 1
   78    70    22 1
   79    71    22 1
   80    72    21 1
   81    73    21 1
   82    74    21 1
   83    75    20 1
   84    76    20 1
   85    77    20 1
   86    78    15 1
   87    79    15 1
   88    80    15 1
   89    81     8 1
   90    82     8 1
   91    83     8 1
   92    84     7 1
   93    85     7 1
   94    86     6 1
   95    87     6 1
   96    88     3 1
   97    89     3 1
   98    90     1 1
   99    91     1 1
  100    92    63 1
  101    93    63 1
  102    94    63 1
  103    95    62 1
  104    96    62 1
  105    97    62 1
  106    98    60 1
  107    99    60 1
  108   100    59 1
  109   101    59 1
  110   102    58 1
  111   103    58 1
  112   104    57 1
  113   105    57 1
  114   106    57 1
  115   107    55 1
  116   108    55 1
  117   109    54 1
  118   110    54 1
  119   111    53 1
  120   112    53 1
  121   113    19 1
  122   114    18 1
  123   115    17 1
  124   116     9 1
  125   117     2 1
  126   118    52 1
  127   119    52 1
  128   120    52 1
  129   121    51 1
  130   122    50 1
  131   123    50 1
  132   124    49 1
  133   125    49 1
  134   126    48 1
  135   127    48 1
  136   128    43 1
  137   129    43 1
  138   130    43 1
  139   131    39 1
  140   132    32 1
  141   133    31 1
  142   134    61 1
  143   135    56 1
  144   136    24 1
  145   137    24 1
  146   139   138 1
  147   140   139 1
  148   141   140 1
  149   142   140 1
  150   143   142 1
  151   144   138 1
  152   144   143 1
  153   145   144 1
  154   146   145 1
  155   147   146 1
  156   148   147 1
  157   149   148 1
  158   150   149 1
  159   151   150 1
  160   152   151 1
  161   153   152 1
  162   154   138 1
  163   155   138 1
  164   156   143 1
  165   157   147 1
  166   158   151 1
  167   160   159 1
  168   161   160 1
  169   162   161 1
  170   163   161 1
  171   164   163 1
  172   165   159 1
  173   165   164 1
  174   166   165 1
  175   167   166 1
  176   168   167 1
  177   169   168 1
  178   170   169 1
  179   171   170 1
  180   172   171 1
  181   173   172 1
  182   174   153 1
  183   174   173 1
  184   175   159 1
  185   176   159 1
  186   177   164 1
  187   178   168 1
  188   179   172 1
  189   180   179 1
  190   181   179 1
  191   182   179 1
  192   183   178 1
  193   184   178 1
  194   185   178 1
  195   186   177 1
  196   187   177 1
  197   188   177 1
  198   189   176 1
  199   190   176 1
  200   191   176 1
  201   192   175 1
  202   193   175 1
  203   194   175 1
  204   195   160 1
  205   196   160 1
  206   197   158 1
  207   198   158 1
  208   199   158 1
  209   200   157 1
  210   201   157 1
  211   202   157 1
  212   203   156 1
  213   204   156 1
  214   205   156 1
  215   206   155 1
  216   207   155 1
  217   208   155 1
  218   209   154 1
  219   210   154 1
  220   211   154 1
  221   212   141 1
  222   213   146 1
  223   214   145 1
  224   215   142 1
  225   216   142 1
  226   217   174 1
  227   218   173 1
  228   219   171 1
  229   220   170 1
  230   221   169 1
  231   222   140 1
  232   223   167 1
  233   224   166 1
  234   225   165 1
  235   226   163 1
  236   227   161 1
  237   228   139 1
  238   229   139 1
  239   230   153 1
  240   231   152 1
  241   232   150 1
  242   233   149 1
  243   234   148 1
  244   235   162 1
  245   65    153 1
  246   65    174 1
@<TRIPOS>SUBSTRUCTURE
      1 CLA               1 ****               0 ****  **** 
      2 LUT             138 ****               0 ****  **** 
