@<TRIPOS>MOLECULE
Cpptraj generated mol2 file.
  235   246     2     0     0
SMALL
USER_CHARGES


@<TRIPOS>ATOM
      1 CAA        77.1799   57.2259   33.1886 a2         1 CLA     -0.055900
      2 CAB        77.7630   61.4468   41.9888 c8         1 CLA     -0.148500
      3 CAC        70.6400   57.3394   41.9698 a2         1 CLA     -0.012600
      4 CAD        72.9626   55.0891   34.6191 ck         1 CLA      0.398800
      5 NA         76.1687   57.9687   36.5813 ns         1 CLA     -0.225500
      6 CBA        78.4148   56.8978   32.3751 a2         1 CLA     -0.135000
      7 CBB        78.9904   61.2368   42.5807 c0         1 CLA     -0.395200
      8 CBC        70.8553   55.7890   42.0951 a3         1 CLA     -0.037700
      9 CBD        74.4441   55.5459   34.2618 a1         1 CLA     -0.053900
     10 NB         76.1956   59.6543   39.1121 nm         1 CLA     -0.295700
     11 OBD        72.3066   54.2774   33.9393 o2         1 CLA     -0.494600
     12 CGA        78.7945   55.3791   32.1104 c4         1 CLA      0.827000
     13 CGD        75.3556   54.3342   34.2152 c4         1 CLA      0.655300
     14 ND         73.3743   57.3454   37.3400 nm         1 CLA     -0.291600
     15 CED        75.8191   52.1516   35.2365 a3         1 CLA      0.005400
     16 CHA        74.8006   56.5243   35.3851 cs         1 CLA     -0.123800
     17 CHB        77.8894   59.5324   37.3152 aa         1 CLA     -0.291900
     18 CHC        75.0993   59.8654   41.3269 aa         1 CLA     -0.090400
     19 CHD        71.6557   57.2942   39.0112 aa         1 CLA     -0.052000
     20 CMA        79.4477   57.1149   35.9653 a3         1 CLA     -0.230700
     21 CMB        79.4443   61.3993   39.1153 a3         1 CLA     -0.180800
     22 CMC        72.6698   59.4567   43.4216 a3         1 CLA     -0.134000
     23 CMD        70.3204   55.2342   36.8492 a3         1 CLA     -0.141100
     24 C1         79.1781   53.3404   33.1062 a2         1 CLA      0.023000
     25 C1A        75.9650   57.2255   35.5274 ac         1 CLA     -0.015100
     26 C1B        77.3703   60.0511   38.5779 cr         1 CLA      0.054700
     27 C1C        73.8466   59.2041   41.0440 cn         1 CLA     -0.005600
     28 C1D        72.1727   56.9056   37.7999 ap         1 CLA     -0.047300
     29 O1A        78.7216   54.7508   31.0538 o2         1 CLA     -0.610800
     30 O1D        76.0703   53.9908   33.2982 o2         1 CLA     -0.558200
     31 C2         79.6572   52.9019   34.4411 c8         1 CLA     -0.325100
     32 C2A        77.2299   56.9398   34.7212 a1         1 CLA      0.098600
     33 C2B        78.0764   60.8305   39.4594 cb         1 CLA      0.088500
     34 C2C        72.7674   58.9447   41.9806 cb         1 CLA      0.053700
     35 C2D        71.6014   56.0232   36.7640 cb         1 CLA      0.058900
     36 O2A        79.1026   54.7374   33.2923 o1         1 CLA     -0.437200
     37 O2D        75.2252   53.4967   35.3311 o1         1 CLA     -0.357600
     38 C3         80.4548   51.8751   34.8065 c5         1 CLA      0.031200
     39 C3A        78.2497   57.8942   35.4356 a1         1 CLA      0.166800
     40 C3B        77.3853   60.8541   40.6863 cb         1 CLA      0.035000
     41 C3C        71.8501   58.0766   41.3580 cb         1 CLA     -0.089900
     42 C3D        72.5747   55.7824   35.8114 cb         1 CLA     -0.035900
     43 C4         79.9547   50.4488   35.1310 a3         1 CLA     -0.053300
     44 C4A        77.3944   58.4511   36.5208 ac         1 CLA      0.001800
     45 C4B        76.1659   60.0738   40.4555 cn         1 CLA     -0.020900
     46 C4C        72.3568   57.9934   40.0209 cr         1 CLA     -0.044400
     47 C4D        73.6780   56.5916   36.2458 c6         1 CLA     -0.046000
     48 C5         81.8979   51.9509   34.7772 a2         1 CLA     -0.070400
     49 C6         82.6563   53.2134   35.0563 a2         1 CLA      0.043900
     50 C7         82.5410   53.4860   36.6030 a2         1 CLA     -0.150000
     51 C8         83.1375   54.9162   36.8924 a1         1 CLA      0.064200
     52 C9         84.5772   55.0748   36.3782 a3         1 CLA     -0.259300
     53 C10        82.9427   55.1994   38.4597 a2         1 CLA     -0.071900
     54 C11        81.5932   55.6470   38.9571 a2         1 CLA      0.014500
     55 C12        81.6978   56.0756   40.3624 a2         1 CLA     -0.112100
     56 C13        80.4262   56.4806   41.1626 a1         1 CLA      0.089200
     57 C14        79.8248   57.8488   40.6486 a3         1 CLA     -0.239100
     58 C15        80.6314   56.5245   42.7246 a2         1 CLA     -0.102200
     59 C16        81.5306   57.5784   43.3271 a2         1 CLA      0.023900
     60 C17        81.6246   57.4478   44.8321 a2         1 CLA     -0.105700
     61 C18        82.3803   58.6259   45.5546 a1         1 CLA      0.206800
     62 C19        83.9021   58.6930   45.1612 a3         1 CLA     -0.280100
     63 C20        81.8065   60.0014   45.2767 a3         1 CLA     -0.280100
     64 NC         73.5398   58.6793   39.8368 nx         1 CLA     -0.309200
     65 MG         74.7597   58.5823   38.0942 mg         1 CLA      0.895000
     66 HMD3       70.2850   54.5295   36.0534 dc         1 CLA      0.064300
     67 HMD2       70.2847   54.5919   37.7673 dc         1 CLA      0.064300
     68 HMD1       69.4361   55.8070   36.6288 dc         1 CLA      0.064300
     69 HMC3       72.3599   58.6702   44.0705 dc         1 CLA      0.052100
     70 HMC2       73.5829   59.9670   43.7168 dc         1 CLA      0.052100
     71 HMC1       71.8215   60.1335   43.4012 dc         1 CLA      0.052100
     72 HMB3       79.6597   62.1831   39.8368 dc         1 CLA      0.063600
     73 HMB2       80.1323   60.5590   39.2334 dc         1 CLA      0.063600
     74 HMB1       79.4460   61.7530   38.0963 dc         1 CLA      0.063600
     75 HMA3       80.1263   57.8307   36.4572 dc         1 CLA      0.058300
     76 HMA2       79.0699   56.3876   36.6793 dc         1 CLA      0.058300
     77 HMA1       80.0186   56.6142   35.1344 dc         1 CLA      0.058300
     78 HED3       76.9271   52.0811   35.3059 dc         1 CLA      0.079300
     79 HED2       75.3703   51.5122   35.9912 dc         1 CLA      0.079300
     80 HED1       75.6643   51.7018   34.2617 dc         1 CLA      0.079300
     81 HBC3       70.1342   55.3354   42.7493 dc         1 CLA      0.016300
     82 HBC2       70.8193   55.2044   41.1537 dc         1 CLA      0.016300
     83 HBC1       71.7627   55.6390   42.6122 dc         1 CLA      0.016300
     84 HBB2       79.2914   61.5939   43.5875 da         1 CLA      0.183000
     85 HBB1       79.7766   60.6774   42.0306 da         1 CLA      0.183000
     86 HBA2       78.2381   57.3147   31.3598 dc         1 CLA      0.029400
     87 HBA1       79.2674   57.4923   32.7005 dc         1 CLA      0.029400
     88 HAC2       70.4538   57.5949   43.0668 dc         1 CLA      0.029300
     89 HAC1       69.7223   57.4870   41.3997 dc         1 CLA      0.029300
     90 HAA2       76.5461   56.4509   32.7647 dc         1 CLA      0.028700
     91 HAA1       76.7452   58.2046   32.9789 dc         1 CLA      0.028700
     92 H203       82.0624   60.3341   44.2543 dc         1 CLA      0.065600
     93 H202       80.7273   59.9690   45.4974 dc         1 CLA      0.065600
     94 H201       82.2044   60.7854   45.9889 dc         1 CLA      0.065600
     95 H193       83.7998   58.8079   44.0851 dc         1 CLA      0.065600
     96 H192       84.5273   59.5159   45.5620 dc         1 CLA      0.065600
     97 H191       84.4111   57.7401   45.5035 dc         1 CLA      0.065600
     98 H172       80.6595   57.4683   45.3540 dc         1 CLA      0.027600
     99 H171       82.1002   56.5092   45.1647 dc         1 CLA      0.027600
    100 H162       82.4639   57.6135   42.8082 dc         1 CLA      0.002900
    101 H161       80.9308   58.4696   43.1007 dc         1 CLA      0.002900
    102 H152       79.6758   56.6295   43.1096 dc         1 CLA      0.029100
    103 H151       80.9853   55.5455   42.9953 dc         1 CLA      0.029100
    104 H143       78.9136   57.9002   41.2162 dc         1 CLA      0.063600
    105 H142       80.4761   58.7478   40.8119 dc         1 CLA      0.063600
    106 H141       79.6833   57.6449   39.5604 dc         1 CLA      0.063600
    107 H122       82.0887   55.2495   40.8569 dc         1 CLA      0.032500
    108 H121       82.4957   56.8269   40.3933 dc         1 CLA      0.032500
    109 H112       81.2891   56.4610   38.3874 dc         1 CLA      0.006600
    110 H111       80.9312   54.7961   38.7848 dc         1 CLA      0.006600
    111 H102       83.2813   54.3472   39.1037 dc         1 CLA      0.024100
    112 H101       83.7095   55.9397   38.6636 dc         1 CLA      0.024100
    113 HHD        70.6774   57.0441   39.3141 da         1 CLA      0.174300
    114 HHC        75.2700   60.2661   42.3196 da         1 CLA      0.136800
    115 HHB        78.8978   59.8689   37.0995 da         1 CLA      0.138300
    116 HBD        74.4309   56.0877   33.3027 dc         1 CLA      0.107700
    117 HAB        76.9545   61.8337   42.6124 da         1 CLA      0.155200
    118 H93        84.6378   54.8711   35.2742 dc         1 CLA      0.069500
    119 H92        84.9416   56.0384   36.6541 dc         1 CLA      0.069500
    120 H91        85.2966   54.3728   36.7593 dc         1 CLA      0.069500
    121 H8         82.4539   55.6121   36.3837 dc         1 CLA      0.029300
    122 H72        81.5257   53.3998   36.8779 dc         1 CLA      0.044400
    123 H71        83.0728   52.7044   37.1540 dc         1 CLA      0.044400
    124 H62        83.6502   53.2477   34.6938 dc         1 CLA      0.015600
    125 H61        82.0501   53.9795   34.5774 dc         1 CLA      0.015600
    126 H52        82.3112   51.2584   35.5316 dc         1 CLA      0.033200
    127 H51        82.1470   51.5476   33.8488 dc         1 CLA      0.033200
    128 H43        78.8586   50.5449   35.0578 dc         1 CLA      0.037000
    129 H42        80.3479   49.7170   34.4239 dc         1 CLA      0.037000
    130 H41        80.2470   50.2574   36.1972 dc         1 CLA      0.037000
    131 H3A        78.5582   58.7312   34.8165 dc         1 CLA      0.041100
    132 H2A        77.5014   55.9020   34.9090 dc         1 CLA      0.083100
    133 H2         79.4985   53.6086   35.2558 da         1 CLA      0.180900
    134 H18        82.3713   58.4410   46.6165 dc         1 CLA     -0.003900
    135 H13        79.7660   55.6755   40.9031 dc         1 CLA      0.019700
    136 H12        78.2103   52.8675   32.9226 dc         1 CLA      0.120400
    137 H11        79.8810   53.0163   32.3415 dc         1 CLA      0.120400
    138 C1         66.9161   61.1912   49.5949 Z1         2 LUT      0.509236
    139 C2         67.1098   62.4304   50.4769 Z2         2 LUT     -0.434695
    140 C3         65.8871   63.3752   50.4627 Z3         2 LUT      0.437453
    141 O3         66.2816   64.7269   50.8840 S1         2 LUT     -0.547129
    142 C4         65.0189   63.4149   49.2639 Z4         2 LUT     -0.468603
    143 C5         65.6022   62.7121   48.0629 Z5         2 LUT      0.279246
    144 C6         66.4141   61.6279   48.1485 Z6         2 LUT     -0.305473
    145 C7         67.2147   61.1674   46.9625 Z7         2 LUT      0.069402
    146 C8         68.1400   61.9417   46.3035 Z8         2 LUT     -0.191631
    147 C9         68.6977   61.7049   44.9430 Z9         2 LUT      0.196698
    148 C10        69.5557   62.5781   44.4481 Y1         2 LUT     -0.208611
    149 C11        70.2320   62.5387   43.1607 Y2         2 LUT      0.030784
    150 C12        71.3653   63.2462   42.7369 Y3         2 LUT     -0.220316
    151 C13        72.0325   62.9413   41.5086 Y4         2 LUT      0.215937
    152 C14        73.3436   63.5381   41.4683 Y5         2 LUT     -0.185793
    153 C15        74.4236   63.5642   40.5397 Y6         2 LUT     -0.057835
    154 C16        65.9270   60.2691   50.2507 Y7         2 LUT     -0.405615
    155 C17        68.2314   60.4299   49.5223 Y7         2 LUT     -0.405615
    156 C18        65.3958   63.5716   46.8185 Y9         2 LUT     -0.369639
    157 C19        68.1315   60.4840   44.2475 W1         2 LUT     -0.333362
    158 C20        71.4533   62.0792   40.3799 W2         2 LUT     -0.323439
    159 C21        85.7392   64.5475   34.4820 Z1         2 LUT      0.406104
    160 C22        86.6474   63.9799   33.2970 Z2         2 LUT     -0.404965
    161 C23        87.0085   64.9708   32.1951 Z3         2 LUT      0.391255
    162 O23        87.7845   64.2060   31.2508 S1         2 LUT     -0.528210
    163 C24        85.7881   65.7266   31.8464 W6         2 LUT     -0.258361
    164 C25        84.6909   65.8944   32.5876 Z5         2 LUT      0.133546
    165 C26        84.4650   65.1881   33.9080 W8         2 LUT     -0.147008
    166 C27        83.5800   65.9363   34.8857 Z7         2 LUT      0.023843
    167 C28        82.4944   65.4188   35.5540 Z8         2 LUT     -0.216987
    168 C29        81.7570   65.8708   36.7614 Z9         2 LUT      0.206524
    169 C30        80.6129   65.1907   37.1118 Y1         2 LUT     -0.215556
    170 C31        79.8997   65.4093   38.2948 Y2         2 LUT      0.025142
    171 C32        78.8035   64.6308   38.5898 Y3         2 LUT     -0.212209
    172 C33        77.8917   64.7291   39.7629 Y4         2 LUT      0.240937
    173 C34        76.6098   64.1670   39.7510 Y5         2 LUT     -0.218862
    174 C35        75.6503   64.2115   40.7908 Y6         2 LUT     -0.023547
    175 C36        86.6368   65.5222   35.2354 Y7         2 LUT     -0.393485
    176 C37        85.5108   63.3108   35.4520 Y7         2 LUT     -0.393485
    177 C38        83.5267   66.6973   32.0185 Y9         2 LUT     -0.387526
    178 C39        82.2979   67.0408   37.5199 W1         2 LUT     -0.322618
    179 C40        78.5954   65.2871   41.0590 W2         2 LUT     -0.358472
    180 H403       79.6797   65.2082   41.0391 R7         2 LUT      0.097720
    181 H402       78.3674   66.2988   41.3591 R7         2 LUT      0.097720
    182 H401       78.2478   64.7335   41.9198 R7         2 LUT      0.097720
    183 H393       81.4973   67.6139   38.1502 R4         2 LUT      0.082505
    184 H392       83.0844   66.7202   38.1708 R4         2 LUT      0.082505
    185 H391       82.6633   67.7647   36.8336 R4         2 LUT      0.082505
    186 H383       82.5986   66.4200   32.5040 R1         2 LUT      0.104030
    187 H382       83.7001   67.7809   32.0834 R1         2 LUT      0.104030
    188 H381       83.3165   66.3822   30.9935 R1         2 LUT      0.104030
    189 H373       84.9693   62.3506   34.9793 T4         2 LUT      0.089537
    190 H372       86.4805   62.9456   35.8456 T4         2 LUT      0.089537
    191 H371       84.8561   63.5876   36.2626 T4         2 LUT      0.089537
    192 H363       86.8706   66.4888   34.7972 T4         2 LUT      0.089537
    193 H362       86.1740   65.6964   36.1837 T4         2 LUT      0.089537
    194 H361       87.6417   65.1105   35.4775 T4         2 LUT      0.089537
    195 H222       87.5022   63.4472   33.6238 U2         2 LUT      0.127376
    196 H221       86.0198   63.2133   32.7843 U2         2 LUT      0.127376
    197 H203       72.1462   61.9580   39.4999 R7         2 LUT      0.087068
    198 H202       71.2099   61.0839   40.7312 R7         2 LUT      0.087068
    199 H201       70.5713   62.5529   40.0536 R7         2 LUT      0.087068
    200 H193       68.4263   59.6432   44.9016 R4         2 LUT      0.089716
    201 H192       67.0033   60.4963   44.2133 R4         2 LUT      0.089716
    202 H191       68.4404   60.4005   43.2276 R4         2 LUT      0.089716
    203 H183       64.3638   63.8455   46.6563 R1         2 LUT      0.094572
    204 H182       66.1002   64.3813   46.9669 R1         2 LUT      0.094572
    205 H181       65.9302   63.0232   45.9822 R1         2 LUT      0.094572
    206 H173       68.5877   59.9761   50.4694 T4         2 LUT      0.093752
    207 H172       68.1925   59.7391   48.6953 T4         2 LUT      0.093752
    208 H171       69.0231   61.0365   49.3139 T4         2 LUT      0.093752
    209 H163       66.2867   59.9209   51.2178 T4         2 LUT      0.093752
    210 H162       64.9237   60.7063   50.2902 T4         2 LUT      0.093752
    211 H161       65.6400   59.3359   49.8633 T4         2 LUT      0.093752
    212 HO3        65.5561   65.0967   51.3589 Q1         2 LUT      0.300121
    213 H8         68.4910   62.9479   46.5629 U7         2 LUT      0.080784
    214 H7         66.8480   60.2096   46.6469 U6         2 LUT      0.042190
    215 H42        64.0313   63.0157   49.4827 U5         2 LUT      0.145166
    216 H41        64.9122   64.5186   48.9672 U5         2 LUT      0.145166
    217 H35        75.8390   64.7456   41.7220 T3         2 LUT      0.077919
    218 H34        76.4026   63.5289   38.7943 T2         2 LUT      0.073626
    219 H32        78.3813   64.0353   37.8240 T1         2 LUT      0.092510
    220 H31        80.2368   66.1746   39.0435 U9         2 LUT      0.070048
    221 H30        80.3101   64.3713   36.4021 U8         2 LUT      0.085442
    222 H3         65.2455   62.9245   51.1792 U3         2 LUT     -0.031596
    223 H28        82.1891   64.4819   35.0917 U7         2 LUT      0.084728
    224 H27        83.9157   66.8999   35.2863 U6         2 LUT      0.087291
    225 H26        83.8654   64.3467   33.6855 Q6         2 LUT      0.075325
    226 H24        85.8800   66.4320   31.0512 Q5         2 LUT      0.094482
    227 H23        87.5953   65.7727   32.5852 U3         2 LUT     -0.024869
    228 H22        67.2947   62.0630   51.4954 U2         2 LUT      0.127376
    229 H21        68.0994   62.8347   50.2043 U2         2 LUT      0.127376
    230 H15        74.2553   63.1009   39.5520 T3         2 LUT      0.093200
    231 H14        73.5696   64.1570   42.3289 T2         2 LUT      0.068865
    232 H12        71.8050   63.9529   43.4227 T1         2 LUT      0.095507
    233 H11        69.7888   61.7742   42.4780 U9         2 LUT      0.068930
    234 H10        69.8365   63.4837   45.1162 U8         2 LUT      0.083911
    235 H1         87.2063   63.8386   30.5391 Q1         2 LUT      0.297311
@<TRIPOS>BOND
    1     6     1 1
    2     7     2 1
    3     8     3 1
    4     9     4 1
    5    11     4 1
    6    12     6 1
    7    13     9 1
    8    16     9 1
    9    25     5 1
   10    25    16 1
   11    26    10 1
   12    26    17 1
   13    27    18 1
   14    28    14 1
   15    28    19 1
   16    29    12 1
   17    30    13 1
   18    31    24 1
   19    32     1 1
   20    32    25 1
   21    33    21 1
   22    33    26 1
   23    34    22 1
   24    34    27 1
   25    35    23 1
   26    35    28 1
   27    36    12 1
   28    36    24 1
   29    37    13 1
   30    37    15 1
   31    38    31 1
   32    39    20 1
   33    39    32 1
   34    40     2 1
   35    40    33 1
   36    41     3 1
   37    41    34 1
   38    42     4 1
   39    42    35 1
   40    43    38 1
   41    44     5 1
   42    44    17 1
   43    44    39 1
   44    45    10 1
   45    45    18 1
   46    45    40 1
   47    46    19 1
   48    46    41 1
   49    47    14 1
   50    47    16 1
   51    47    42 1
   52    48    38 1
   53    49    48 1
   54    50    49 1
   55    51    50 1
   56    52    51 1
   57    53    51 1
   58    54    53 1
   59    55    54 1
   60    56    55 1
   61    57    56 1
   62    58    56 1
   63    59    58 1
   64    60    59 1
   65    61    60 1
   66    62    61 1
   67    63    61 1
   68    64    27 1
   69    64    46 1
   70    65     5 1
   71    65    10 1
   72    65    64 1
   73    65    14 1
   74    66    23 1
   75    67    23 1
   76    68    23 1
   77    69    22 1
   78    70    22 1
   79    71    22 1
   80    72    21 1
   81    73    21 1
   82    74    21 1
   83    75    20 1
   84    76    20 1
   85    77    20 1
   86    78    15 1
   87    79    15 1
   88    80    15 1
   89    81     8 1
   90    82     8 1
   91    83     8 1
   92    84     7 1
   93    85     7 1
   94    86     6 1
   95    87     6 1
   96    88     3 1
   97    89     3 1
   98    90     1 1
   99    91     1 1
  100    92    63 1
  101    93    63 1
  102    94    63 1
  103    95    62 1
  104    96    62 1
  105    97    62 1
  106    98    60 1
  107    99    60 1
  108   100    59 1
  109   101    59 1
  110   102    58 1
  111   103    58 1
  112   104    57 1
  113   105    57 1
  114   106    57 1
  115   107    55 1
  116   108    55 1
  117   109    54 1
  118   110    54 1
  119   111    53 1
  120   112    53 1
  121   113    19 1
  122   114    18 1
  123   115    17 1
  124   116     9 1
  125   117     2 1
  126   118    52 1
  127   119    52 1
  128   120    52 1
  129   121    51 1
  130   122    50 1
  131   123    50 1
  132   124    49 1
  133   125    49 1
  134   126    48 1
  135   127    48 1
  136   128    43 1
  137   129    43 1
  138   130    43 1
  139   131    39 1
  140   132    32 1
  141   133    31 1
  142   134    61 1
  143   135    56 1
  144   136    24 1
  145   137    24 1
  146   139   138 1
  147   140   139 1
  148   141   140 1
  149   142   140 1
  150   143   142 1
  151   144   138 1
  152   144   143 1
  153   145   144 1
  154   146   145 1
  155   147   146 1
  156   148   147 1
  157   149   148 1
  158   150   149 1
  159   151   150 1
  160   152   151 1
  161   153   152 1
  162   154   138 1
  163   155   138 1
  164   156   143 1
  165   157   147 1
  166   158   151 1
  167   160   159 1
  168   161   160 1
  169   162   161 1
  170   163   161 1
  171   164   163 1
  172   165   159 1
  173   165   164 1
  174   166   165 1
  175   167   166 1
  176   168   167 1
  177   169   168 1
  178   170   169 1
  179   171   170 1
  180   172   171 1
  181   173   172 1
  182   174   153 1
  183   174   173 1
  184   175   159 1
  185   176   159 1
  186   177   164 1
  187   178   168 1
  188   179   172 1
  189   180   179 1
  190   181   179 1
  191   182   179 1
  192   183   178 1
  193   184   178 1
  194   185   178 1
  195   186   177 1
  196   187   177 1
  197   188   177 1
  198   189   176 1
  199   190   176 1
  200   191   176 1
  201   192   175 1
  202   193   175 1
  203   194   175 1
  204   195   160 1
  205   196   160 1
  206   197   158 1
  207   198   158 1
  208   199   158 1
  209   200   157 1
  210   201   157 1
  211   202   157 1
  212   203   156 1
  213   204   156 1
  214   205   156 1
  215   206   155 1
  216   207   155 1
  217   208   155 1
  218   209   154 1
  219   210   154 1
  220   211   154 1
  221   212   141 1
  222   213   146 1
  223   214   145 1
  224   215   142 1
  225   216   142 1
  226   217   174 1
  227   218   173 1
  228   219   171 1
  229   220   170 1
  230   221   169 1
  231   222   140 1
  232   223   167 1
  233   224   166 1
  234   225   165 1
  235   226   163 1
  236   227   161 1
  237   228   139 1
  238   229   139 1
  239   230   153 1
  240   231   152 1
  241   232   150 1
  242   233   149 1
  243   234   148 1
  244   235   162 1
  245   65    153 1
  246   65    174 1
@<TRIPOS>SUBSTRUCTURE
      1 CLA               1 ****               0 ****  **** 
      2 LUT             138 ****               0 ****  **** 
