@<TRIPOS>MOLECULE
Cpptraj generated mol2 file.
  235   246     2     0     0
SMALL
USER_CHARGES


@<TRIPOS>ATOM
      1 CAA        77.1972   58.2678   34.6846 a2         1 CLA     -0.055900
      2 CAB        77.3576   61.8776   43.8722 c8         1 CLA     -0.148500
      3 CAC        70.5564   57.6135   43.3670 a2         1 CLA     -0.012600
      4 CAD        73.2733   55.5678   35.9258 ck         1 CLA      0.398800
      5 NA         76.3088   58.7706   38.1626 ns         1 CLA     -0.225500
      6 CBA        78.3960   58.0826   33.7366 a2         1 CLA     -0.135000
      7 CBB        78.5330   62.0918   44.4749 c0         1 CLA     -0.395200
      8 CBC        70.5996   56.0593   43.3485 a3         1 CLA     -0.037700
      9 CBD        74.6865   56.2018   35.6610 a1         1 CLA     -0.053900
     10 NB         76.0943   60.2589   40.7555 nm         1 CLA     -0.295700
     11 OBD        72.7084   54.7666   35.1724 o2         1 CLA     -0.494600
     12 CGA        78.9165   56.6816   33.5336 c4         1 CLA      0.827000
     13 CGD        75.6395   55.1096   35.4822 c4         1 CLA      0.655300
     14 ND         73.4711   57.7852   38.7053 nm         1 CLA     -0.291600
     15 CED        77.1052   53.7170   36.8101 a3         1 CLA      0.005400
     16 CHA        74.9489   57.2083   36.8430 cs         1 CLA     -0.123800
     17 CHB        78.1007   59.9176   39.3145 aa         1 CLA     -0.291900
     18 CHC        74.7262   60.4649   42.7855 aa         1 CLA     -0.090400
     19 CHD        71.7365   57.6087   40.3010 aa         1 CLA     -0.052000
     20 CMA        79.6051   57.9330   37.5875 a3         1 CLA     -0.230700
     21 CMB        79.3212   62.0350   41.2198 a3         1 CLA     -0.180800
     22 CMC        72.4941   59.6690   44.9826 a3         1 CLA     -0.134000
     23 CMD        70.3676   55.7675   38.0030 a3         1 CLA     -0.141100
     24 C1         80.2619   54.9260   34.6622 a2         1 CLA      0.023000
     25 C1A        76.0917   58.0064   37.0134 ac         1 CLA     -0.015100
     26 C1B        77.3640   60.5746   40.3774 cr         1 CLA      0.054700
     27 C1C        73.6115   59.5626   42.5154 cn         1 CLA     -0.005600
     28 C1D        72.2914   57.2937   39.1061 ap         1 CLA     -0.047300
     29 O1A        78.6772   55.9623   32.5753 o2         1 CLA     -0.610800
     30 O1D        76.3579   54.9660   34.5288 o2         1 CLA     -0.558200
     31 C2         81.0962   54.8479   35.9375 c8         1 CLA     -0.325100
     32 C2A        77.3762   57.8281   36.2252 a1         1 CLA      0.098600
     33 C2B        77.9513   61.4693   41.3655 cb         1 CLA      0.088500
     34 C2C        72.5643   59.1725   43.4642 cb         1 CLA      0.053700
     35 C2D        71.7276   56.4996   37.9906 cb         1 CLA      0.058900
     36 O2A        79.6399   56.3238   34.5667 o1         1 CLA     -0.437200
     37 O2D        75.8647   54.4997   36.6691 o1         1 CLA     -0.357600
     38 C3         81.8945   53.7579   36.2036 c5         1 CLA      0.031200
     39 C3A        78.4021   58.6479   37.0464 a1         1 CLA      0.166800
     40 C3B        77.1194   61.4555   42.5033 cb         1 CLA      0.035000
     41 C3C        71.7810   58.2191   42.7609 cb         1 CLA     -0.089900
     42 C3D        72.8133   56.2752   37.1169 cb         1 CLA     -0.035900
     43 C4         81.4740   52.5736   37.0083 a3         1 CLA     -0.053300
     44 C4A        77.5931   59.1258   38.2629 ac         1 CLA      0.001800
     45 C4B        75.8803   60.6930   42.0313 cn         1 CLA     -0.020900
     46 C4C        72.3587   58.1653   41.4271 cr         1 CLA     -0.044400
     47 C4D        73.8517   57.1298   37.6361 c6         1 CLA     -0.046000
     48 C5         83.3508   53.7639   35.7431 a2         1 CLA     -0.070400
     49 C6         84.1860   54.9519   36.1823 a2         1 CLA      0.043900
     50 C7         84.7828   54.8131   37.6221 a2         1 CLA     -0.150000
     51 C8         85.6178   56.0417   38.0586 a1         1 CLA      0.064200
     52 C9         87.1003   55.8387   37.8057 a3         1 CLA     -0.259300
     53 C10        85.3762   56.4177   39.5930 a2         1 CLA     -0.071900
     54 C11        83.9815   56.8688   39.9192 a2         1 CLA      0.014500
     55 C12        83.8503   57.7107   41.1621 a2         1 CLA     -0.112100
     56 C13        84.4376   57.0915   42.4897 a1         1 CLA      0.089200
     57 C14        83.6513   55.8697   42.9590 a3         1 CLA     -0.239100
     58 C15        84.7521   58.1612   43.5252 a2         1 CLA     -0.102200
     59 C16        83.5917   58.9825   44.0722 a2         1 CLA      0.023900
     60 C17        84.1959   60.1424   44.8340 a2         1 CLA     -0.105700
     61 C18        83.2417   60.8133   45.9538 a1         1 CLA      0.206800
     62 C19        83.9932   62.0356   46.5948 a3         1 CLA     -0.280100
     63 C20        81.7784   61.1642   45.4544 a3         1 CLA     -0.280100
     64 NC         73.4739   58.9276   41.3329 nx         1 CLA     -0.309200
     65 MG         74.8084   59.0871   39.7066 mg         1 CLA      0.895000
     66 HMD3       70.4510   54.8324   37.4152 dc         1 CLA      0.064300
     67 HMD2       69.9680   55.5741   39.0858 dc         1 CLA      0.064300
     68 HMD1       69.6314   56.3779   37.4930 dc         1 CLA      0.064300
     69 HMC3       73.5061   59.8113   45.4768 dc         1 CLA      0.052100
     70 HMC2       71.8520   60.5996   45.0650 dc         1 CLA      0.052100
     71 HMC1       72.0106   58.8980   45.6205 dc         1 CLA      0.052100
     72 HMB3       80.1588   61.2568   41.3550 dc         1 CLA      0.063600
     73 HMB2       79.2524   62.3604   40.1485 dc         1 CLA      0.063600
     74 HMB1       79.4591   62.9313   41.8966 dc         1 CLA      0.063600
     75 HMA3       80.1768   57.6479   36.7156 dc         1 CLA      0.058300
     76 HMA2       80.1176   58.5496   38.3698 dc         1 CLA      0.058300
     77 HMA1       79.3467   56.8990   37.9489 dc         1 CLA      0.058300
     78 HED3       77.2901   53.6136   37.8826 dc         1 CLA      0.079300
     79 HED2       76.8556   52.7305   36.4572 dc         1 CLA      0.079300
     80 HED1       77.9579   54.1363   36.2418 dc         1 CLA      0.079300
     81 HBC3       71.0946   55.7092   42.4839 dc         1 CLA      0.016300
     82 HBC2       71.3927   55.7320   44.0917 dc         1 CLA      0.016300
     83 HBC1       69.6793   55.6145   43.6474 dc         1 CLA      0.016300
     84 HBB2       78.5728   62.5458   45.4530 da         1 CLA      0.183000
     85 HBB1       79.4840   62.0674   43.8883 da         1 CLA      0.183000
     86 HBA2       78.3573   58.6190   32.7801 dc         1 CLA      0.029400
     87 HBA1       79.1963   58.6144   34.2002 dc         1 CLA      0.029400
     88 HAC2       70.5894   57.9290   44.4304 dc         1 CLA      0.029300
     89 HAC1       69.6417   57.9009   42.9420 dc         1 CLA      0.029300
     90 HAA2       76.3204   57.7548   34.2135 dc         1 CLA      0.028700
     91 HAA1       76.9747   59.3262   34.7584 dc         1 CLA      0.028700
     92 H203       81.1506   61.5504   46.2961 dc         1 CLA      0.065600
     93 H202       81.9303   62.0219   44.8471 dc         1 CLA      0.065600
     94 H201       81.3181   60.3631   44.9733 dc         1 CLA      0.065600
     95 H193       83.2408   62.6792   46.9974 dc         1 CLA      0.065600
     96 H192       84.5619   61.6188   47.4314 dc         1 CLA      0.065600
     97 H191       84.6543   62.6074   45.8657 dc         1 CLA      0.065600
     98 H172       85.1762   59.8267   45.2895 dc         1 CLA      0.027600
     99 H171       84.4483   60.9398   44.1330 dc         1 CLA      0.027600
    100 H162       82.9807   59.3542   43.2777 dc         1 CLA      0.002900
    101 H161       82.9809   58.2928   44.7015 dc         1 CLA      0.002900
    102 H152       85.2625   57.7205   44.3166 dc         1 CLA      0.029100
    103 H151       85.3870   58.9833   43.1131 dc         1 CLA      0.029100
    104 H143       82.7608   56.1902   43.5577 dc         1 CLA      0.063600
    105 H142       83.4403   55.1331   42.1702 dc         1 CLA      0.063600
    106 H141       84.1894   55.4115   43.7791 dc         1 CLA      0.063600
    107 H122       84.3984   58.6218   40.9202 dc         1 CLA      0.032500
    108 H121       82.8874   58.0163   41.5825 dc         1 CLA      0.032500
    109 H112       83.5382   57.3406   39.0340 dc         1 CLA      0.006600
    110 H111       83.3930   56.0031   40.1437 dc         1 CLA      0.006600
    111 H102       85.6896   55.5636   40.1779 dc         1 CLA      0.024100
    112 H101       86.0943   57.2255   39.8798 dc         1 CLA      0.024100
    113 HHD        70.8011   57.0957   40.5098 da         1 CLA      0.174300
    114 HHC        74.6955   60.9253   43.7276 da         1 CLA      0.136800
    115 HHB        79.1342   60.2742   39.2134 da         1 CLA      0.138300
    116 HBD        74.4342   56.7387   34.7546 dc         1 CLA      0.107700
    117 HAB        76.5121   62.1273   44.5100 da         1 CLA      0.155200
    118 H93        87.5152   56.7780   38.1259 dc         1 CLA      0.069500
    119 H92        87.5831   55.1462   38.4575 dc         1 CLA      0.069500
    120 H91        87.3217   55.6486   36.7326 dc         1 CLA      0.069500
    121 H8         85.2348   56.8760   37.3750 dc         1 CLA      0.029300
    122 H72        83.8105   54.7215   38.1526 dc         1 CLA      0.044400
    123 H71        85.3937   53.8802   37.7112 dc         1 CLA      0.044400
    124 H62        85.0680   54.9792   35.5359 dc         1 CLA      0.015600
    125 H61        83.6545   55.9207   36.1433 dc         1 CLA      0.015600
    126 H52        83.8305   52.8344   36.0305 dc         1 CLA      0.033200
    127 H51        83.3296   53.7689   34.6781 dc         1 CLA      0.033200
    128 H43        82.0794   52.5902   37.9254 dc         1 CLA      0.037000
    129 H42        80.3922   52.5484   37.3715 dc         1 CLA      0.037000
    130 H41        81.7663   51.5925   36.5158 dc         1 CLA      0.037000
    131 H3A        78.7673   59.5005   36.4522 dc         1 CLA      0.041100
    132 H2A        77.6705   56.8126   36.2803 dc         1 CLA      0.083100
    133 H2         81.0118   55.6938   36.6907 da         1 CLA      0.180900
    134 H18        83.1032   60.0230   46.7063 dc         1 CLA     -0.003900
    135 H13        85.4041   56.6148   42.5042 dc         1 CLA      0.019700
    136 H12        79.4566   54.1565   34.5577 dc         1 CLA      0.120400
    137 H11        80.9512   54.7070   33.8438 dc         1 CLA      0.120400
    138 C1         67.5787   61.8482   50.9487 Z1         2 LUT      0.509236
    139 C2         66.2098   61.5558   51.5113 Z2         2 LUT     -0.434695
    140 C3         65.3533   62.8335   51.7639 Z3         2 LUT      0.437453
    141 O3         65.4314   63.2947   53.1853 S1         2 LUT     -0.547129
    142 C4         65.7186   63.8975   50.7540 Z4         2 LUT     -0.468603
    143 C5         66.5400   63.5120   49.4992 Z5         2 LUT      0.279246
    144 C6         67.4050   62.5462   49.5784 Z6         2 LUT     -0.305473
    145 C7         67.9698   62.1059   48.2912 Z7         2 LUT      0.069402
    146 C8         68.9727   62.7465   47.6075 Z8         2 LUT     -0.191631
    147 C9         69.4943   62.2919   46.3283 Z9         2 LUT      0.196698
    148 C10        70.3975   63.2016   45.6580 Y1         2 LUT     -0.208611
    149 C11        71.0995   63.0477   44.3768 Y2         2 LUT      0.030784
    150 C12        72.1920   63.7398   44.0101 Y3         2 LUT     -0.220316
    151 C13        73.0415   63.6413   42.8332 Y4         2 LUT      0.215937
    152 C14        74.2939   64.1944   42.8654 Y5         2 LUT     -0.185793
    153 C15        75.3069   64.4358   41.8789 Y6         2 LUT     -0.057835
    154 C16        68.2238   60.4768   50.7698 Y7         2 LUT     -0.405615
    155 C17        68.3745   62.6145   51.8895 Y7         2 LUT     -0.405615
    156 C18        65.9821   64.1133   48.2560 Y9         2 LUT     -0.369639
    157 C19        69.1206   60.9775   45.6529 W1         2 LUT     -0.333362
    158 C20        72.6018   62.9093   41.5849 W2         2 LUT     -0.323439
    159 C21        85.9550   65.3486   35.2546 Z1         2 LUT      0.406104
    160 C22        86.6220   64.5776   34.1089 Z2         2 LUT     -0.404965
    161 C23        86.7367   65.3513   32.8343 Z3         2 LUT      0.391255
    162 O23        86.9928   64.3656   31.8451 S1         2 LUT     -0.528210
    163 C24        85.4793   66.1315   32.5613 W6         2 LUT     -0.258361
    164 C25        84.4777   66.4356   33.4056 Z5         2 LUT      0.133546
    165 C26        84.5248   65.8598   34.7751 W8         2 LUT     -0.147008
    166 C27        83.8902   66.7084   35.7905 Z7         2 LUT      0.023843
    167 C28        82.8570   66.2441   36.5022 Z8         2 LUT     -0.216987
    168 C29        82.4291   66.7508   37.8238 Z9         2 LUT      0.206524
    169 C30        81.4019   66.1474   38.4697 Y1         2 LUT     -0.215556
    170 C31        80.8037   66.3785   39.7570 Y2         2 LUT      0.025142
    171 C32        79.5891   65.7403   40.0916 Y3         2 LUT     -0.212209
    172 C33        78.7535   65.7309   41.2884 Y4         2 LUT      0.240937
    173 C34        77.4845   65.1184   41.1937 Y5         2 LUT     -0.218862
    174 C35        76.4854   65.0377   42.2393 Y6         2 LUT     -0.023547
    175 C36        86.9623   66.4339   35.7628 Y7         2 LUT     -0.393485
    176 C37        85.9244   64.3604   36.4174 Y7         2 LUT     -0.393485
    177 C38        83.3227   67.2464   32.9535 Y9         2 LUT     -0.387526
    178 C39        83.1848   67.9178   38.4293 W1         2 LUT     -0.322618
    179 C40        79.4091   66.3581   42.4526 W2         2 LUT     -0.358472
    180 H403       79.9461   67.2582   42.2797 R7         2 LUT      0.097720
    181 H402       78.6461   66.3747   43.2565 R7         2 LUT      0.097720
    182 H401       80.1168   65.6383   42.8230 R7         2 LUT      0.097720
    183 H393       84.2403   67.9494   38.2316 R4         2 LUT      0.082505
    184 H392       82.8240   68.9220   38.0995 R4         2 LUT      0.082505
    185 H391       83.1775   68.0595   39.5183 R4         2 LUT      0.082505
    186 H383       83.5663   68.2518   32.6437 R1         2 LUT      0.104030
    187 H382       82.8828   66.7004   32.0790 R1         2 LUT      0.104030
    188 H381       82.6011   67.3789   33.7007 R1         2 LUT      0.104030
    189 H373       85.7483   64.8066   37.3735 T4         2 LUT      0.089537
    190 H372       85.4478   63.4140   36.2553 T4         2 LUT      0.089537
    191 H371       86.9502   64.0408   36.4455 T4         2 LUT      0.089537
    192 H363       87.9180   66.0000   36.1940 T4         2 LUT      0.089537
    193 H362       87.2801   67.1214   34.9322 T4         2 LUT      0.089537
    194 H361       86.6357   67.1719   36.5099 T4         2 LUT      0.089537
    195 H222       87.5904   64.1351   34.3593 U2         2 LUT      0.127376
    196 H221       86.0602   63.6767   33.9072 U2         2 LUT      0.127376
    197 H203       73.4378   62.5309   41.0045 R7         2 LUT      0.087068
    198 H202       71.9699   62.0466   41.8621 R7         2 LUT      0.087068
    199 H201       72.0322   63.5745   40.9619 R7         2 LUT      0.087068
    200 H193       69.6650   60.1980   46.1676 R4         2 LUT      0.089716
    201 H192       68.0806   60.6975   45.7146 R4         2 LUT      0.089716
    202 H191       69.4205   60.9019   44.5531 R4         2 LUT      0.089716
    203 H183       66.4125   63.6270   47.2954 R1         2 LUT      0.094572
    204 H182       64.8959   64.1200   48.2606 R1         2 LUT      0.094572
    205 H181       66.1794   65.1606   48.2235 R1         2 LUT      0.094572
    206 H173       68.2848   63.6775   51.9600 T4         2 LUT      0.093752
    207 H172       68.3781   62.2539   52.8890 T4         2 LUT      0.093752
    208 H171       69.3482   62.4695   51.5145 T4         2 LUT      0.093752
    209 H163       68.7774   60.0020   51.5973 T4         2 LUT      0.093752
    210 H162       67.5621   59.6635   50.2415 T4         2 LUT      0.093752
    211 H161       69.1110   60.5054   50.1067 T4         2 LUT      0.093752
    212 HO3        65.2957   62.6067   53.8883 Q1         2 LUT      0.300121
    213 H8         69.2838   63.7027   48.1095 U7         2 LUT      0.080784
    214 H7         67.6514   61.1729   47.9245 U6         2 LUT      0.042190
    215 H42        64.7363   64.3488   50.5811 U5         2 LUT      0.145166
    216 H41        66.2290   64.6888   51.2620 U5         2 LUT      0.145166
    217 H35        76.6120   65.4557   43.2816 T3         2 LUT      0.077919
    218 H34        77.2376   64.7242   40.2479 T2         2 LUT      0.073626
    219 H32        79.2351   65.1058   39.2855 T1         2 LUT      0.092510
    220 H31        81.2295   67.1350   40.4456 U9         2 LUT      0.070048
    221 H30        81.0162   65.3031   37.9304 U8         2 LUT      0.085442
    222 H3         64.3681   62.5513   51.3911 U3         2 LUT     -0.031596
    223 H28        82.2401   65.4239   36.0737 U7         2 LUT      0.084728
    224 H27        84.3960   67.6939   35.9490 U6         2 LUT      0.087291
    225 H26        83.8930   64.9585   34.7949 Q6         2 LUT      0.075325
    226 H24        85.2864   66.4976   31.5755 Q5         2 LUT      0.094482
    227 H23        87.5505   66.1450   32.8779 U3         2 LUT     -0.024869
    228 H22        65.6973   61.0000   50.6888 U2         2 LUT      0.127376
    229 H21        66.2272   60.8743   52.3634 U2         2 LUT      0.127376
    230 H15        75.2081   64.1326   40.8718 T3         2 LUT      0.093200
    231 H14        74.4827   64.6374   43.8039 T2         2 LUT      0.068865
    232 H12        72.5085   64.4251   44.7578 T1         2 LUT      0.095507
    233 H11        70.7507   62.2806   43.6596 U9         2 LUT      0.068930
    234 H10        70.5780   64.1880   46.1058 U8         2 LUT      0.083911
    235 H1         87.5033   64.6463   31.0672 Q1         2 LUT      0.297311
@<TRIPOS>BOND
    1     6     1 1
    2     7     2 1
    3     8     3 1
    4     9     4 1
    5    11     4 1
    6    12     6 1
    7    13     9 1
    8    16     9 1
    9    25     5 1
   10    25    16 1
   11    26    10 1
   12    26    17 1
   13    27    18 1
   14    28    14 1
   15    28    19 1
   16    29    12 1
   17    30    13 1
   18    31    24 1
   19    32     1 1
   20    32    25 1
   21    33    21 1
   22    33    26 1
   23    34    22 1
   24    34    27 1
   25    35    23 1
   26    35    28 1
   27    36    12 1
   28    36    24 1
   29    37    13 1
   30    37    15 1
   31    38    31 1
   32    39    20 1
   33    39    32 1
   34    40     2 1
   35    40    33 1
   36    41     3 1
   37    41    34 1
   38    42     4 1
   39    42    35 1
   40    43    38 1
   41    44     5 1
   42    44    17 1
   43    44    39 1
   44    45    10 1
   45    45    18 1
   46    45    40 1
   47    46    19 1
   48    46    41 1
   49    47    14 1
   50    47    16 1
   51    47    42 1
   52    48    38 1
   53    49    48 1
   54    50    49 1
   55    51    50 1
   56    52    51 1
   57    53    51 1
   58    54    53 1
   59    55    54 1
   60    56    55 1
   61    57    56 1
   62    58    56 1
   63    59    58 1
   64    60    59 1
   65    61    60 1
   66    62    61 1
   67    63    61 1
   68    64    27 1
   69    64    46 1
   70    65     5 1
   71    65    10 1
   72    65    64 1
   73    65    14 1
   74    66    23 1
   75    67    23 1
   76    68    23 1
   77    69    22 1
   78    70    22 1
   79    71    22 1
   80    72    21 1
   81    73    21 1
   82    74    21 1
   83    75    20 1
   84    76    20 1
   85    77    20 1
   86    78    15 1
   87    79    15 1
   88    80    15 1
   89    81     8 1
   90    82     8 1
   91    83     8 1
   92    84     7 1
   93    85     7 1
   94    86     6 1
   95    87     6 1
   96    88     3 1
   97    89     3 1
   98    90     1 1
   99    91     1 1
  100    92    63 1
  101    93    63 1
  102    94    63 1
  103    95    62 1
  104    96    62 1
  105    97    62 1
  106    98    60 1
  107    99    60 1
  108   100    59 1
  109   101    59 1
  110   102    58 1
  111   103    58 1
  112   104    57 1
  113   105    57 1
  114   106    57 1
  115   107    55 1
  116   108    55 1
  117   109    54 1
  118   110    54 1
  119   111    53 1
  120   112    53 1
  121   113    19 1
  122   114    18 1
  123   115    17 1
  124   116     9 1
  125   117     2 1
  126   118    52 1
  127   119    52 1
  128   120    52 1
  129   121    51 1
  130   122    50 1
  131   123    50 1
  132   124    49 1
  133   125    49 1
  134   126    48 1
  135   127    48 1
  136   128    43 1
  137   129    43 1
  138   130    43 1
  139   131    39 1
  140   132    32 1
  141   133    31 1
  142   134    61 1
  143   135    56 1
  144   136    24 1
  145   137    24 1
  146   139   138 1
  147   140   139 1
  148   141   140 1
  149   142   140 1
  150   143   142 1
  151   144   138 1
  152   144   143 1
  153   145   144 1
  154   146   145 1
  155   147   146 1
  156   148   147 1
  157   149   148 1
  158   150   149 1
  159   151   150 1
  160   152   151 1
  161   153   152 1
  162   154   138 1
  163   155   138 1
  164   156   143 1
  165   157   147 1
  166   158   151 1
  167   160   159 1
  168   161   160 1
  169   162   161 1
  170   163   161 1
  171   164   163 1
  172   165   159 1
  173   165   164 1
  174   166   165 1
  175   167   166 1
  176   168   167 1
  177   169   168 1
  178   170   169 1
  179   171   170 1
  180   172   171 1
  181   173   172 1
  182   174   153 1
  183   174   173 1
  184   175   159 1
  185   176   159 1
  186   177   164 1
  187   178   168 1
  188   179   172 1
  189   180   179 1
  190   181   179 1
  191   182   179 1
  192   183   178 1
  193   184   178 1
  194   185   178 1
  195   186   177 1
  196   187   177 1
  197   188   177 1
  198   189   176 1
  199   190   176 1
  200   191   176 1
  201   192   175 1
  202   193   175 1
  203   194   175 1
  204   195   160 1
  205   196   160 1
  206   197   158 1
  207   198   158 1
  208   199   158 1
  209   200   157 1
  210   201   157 1
  211   202   157 1
  212   203   156 1
  213   204   156 1
  214   205   156 1
  215   206   155 1
  216   207   155 1
  217   208   155 1
  218   209   154 1
  219   210   154 1
  220   211   154 1
  221   212   141 1
  222   213   146 1
  223   214   145 1
  224   215   142 1
  225   216   142 1
  226   217   174 1
  227   218   173 1
  228   219   171 1
  229   220   170 1
  230   221   169 1
  231   222   140 1
  232   223   167 1
  233   224   166 1
  234   225   165 1
  235   226   163 1
  236   227   161 1
  237   228   139 1
  238   229   139 1
  239   230   153 1
  240   231   152 1
  241   232   150 1
  242   233   149 1
  243   234   148 1
  244   235   162 1
  245   65    153 1
  246   65    174 1
@<TRIPOS>SUBSTRUCTURE
      1 CLA               1 ****               0 ****  **** 
      2 LUT             138 ****               0 ****  **** 
