@<TRIPOS>MOLECULE
Cpptraj generated mol2 file.
  235   246     2     0     0
SMALL
USER_CHARGES


@<TRIPOS>ATOM
      1 CAA        79.3377   59.0849   33.4349 a2         1 CLA     -0.055900
      2 CAB        78.7372   62.8870   42.3683 c8         1 CLA     -0.148500
      3 CAC        72.2206   58.3785   41.7575 a2         1 CLA     -0.012600
      4 CAD        74.9676   56.6575   34.2517 ck         1 CLA      0.398800
      5 NA         78.0359   59.5357   36.7645 ns         1 CLA     -0.225500
      6 CBA        80.6404   58.8266   32.6776 a2         1 CLA     -0.135000
      7 CBB        79.7276   62.9878   43.2630 c0         1 CLA     -0.395200
      8 CBC        72.3937   56.9126   42.0839 a3         1 CLA     -0.037700
      9 CBD        76.4080   57.2777   33.9863 a1         1 CLA     -0.053900
     10 NB         77.8794   60.9067   39.4056 nm         1 CLA     -0.295700
     11 OBD        74.4469   55.9344   33.4082 o2         1 CLA     -0.494600
     12 CGA        80.9410   57.3978   32.2589 c4         1 CLA      0.827000
     13 CGD        77.4226   56.2218   33.5474 c4         1 CLA      0.655300
     14 ND         75.3943   58.2899   37.3497 nm         1 CLA     -0.291600
     15 CED        78.3247   53.9640   33.9392 a3         1 CLA      0.005400
     16 CHA        76.7939   58.0588   35.2738 cs         1 CLA     -0.123800
     17 CHB        79.9194   60.7610   38.0104 aa         1 CLA     -0.291900
     18 CHC        76.4732   61.0498   41.3849 aa         1 CLA     -0.090400
     19 CHD        73.4942   58.0822   38.9243 aa         1 CLA     -0.052000
     20 CMA        81.3731   58.4461   36.3364 a3         1 CLA     -0.230700
     21 CMB        81.1227   62.6479   40.1042 a3         1 CLA     -0.180800
     22 CMC        74.1475   60.3965   43.3804 a3         1 CLA     -0.134000
     23 CMD        72.2983   56.2782   36.6351 a3         1 CLA     -0.141100
     24 C1         81.7834   55.3537   33.0915 a2         1 CLA      0.023000
     25 C1A        77.9615   58.6824   35.6691 ac         1 CLA     -0.015100
     26 C1B        79.2355   61.2352   39.1270 cr         1 CLA      0.054700
     27 C1C        75.4165   60.1643   41.0861 cn         1 CLA     -0.005600
     28 C1D        74.1170   57.7834   37.7038 ap         1 CLA     -0.047300
     29 O1A        80.8231   56.8947   31.1384 o2         1 CLA     -0.610800
     30 O1D        78.0306   56.2819   32.4855 o2         1 CLA     -0.558200
     31 C2         82.4652   54.8189   34.3298 c8         1 CLA     -0.325100
     32 C2A        79.3092   58.6061   34.8743 a1         1 CLA      0.098600
     33 C2B        79.7491   62.0669   40.1014 cb         1 CLA      0.088500
     34 C2C        74.2330   59.9244   41.9519 cb         1 CLA      0.053700
     35 C2D        73.6095   57.0621   36.5949 cb         1 CLA      0.058900
     36 O2A        81.2931   56.6442   33.3129 o1         1 CLA     -0.437200
     37 O2D        77.6256   55.1504   34.3807 o1         1 CLA     -0.357600
     38 C3         83.4166   53.9131   34.4669 c5         1 CLA      0.031200
     39 C3A        80.2137   59.4221   35.8037 a1         1 CLA      0.166800
     40 C3B        78.7439   62.1482   41.1147 cb         1 CLA      0.035000
     41 C3C        73.4179   59.0500   41.2113 cb         1 CLA     -0.089900
     42 C3D        74.5890   57.1172   35.5524 cb         1 CLA     -0.035900
     43 C4         83.2914   52.4375   34.9389 a3         1 CLA     -0.053300
     44 C4A        79.3911   59.9881   36.9300 ac         1 CLA      0.001800
     45 C4B        77.5964   61.3823   40.6641 cn         1 CLA     -0.020900
     46 C4C        74.0422   58.8030   39.9923 cr         1 CLA     -0.044400
     47 C4D        75.6895   57.8770   36.1107 c6         1 CLA     -0.046000
     48 C5         84.8292   54.3218   34.1077 a2         1 CLA     -0.070400
     49 C6         85.2553   55.7378   34.6978 a2         1 CLA      0.043900
     50 C7         85.0532   55.6798   36.2085 a2         1 CLA     -0.150000
     51 C8         85.3219   56.9621   37.0411 a1         1 CLA      0.064200
     52 C9         86.8524   57.2448   37.0553 a3         1 CLA     -0.259300
     53 C10        84.7184   56.8841   38.5176 a2         1 CLA     -0.071900
     54 C11        84.7702   58.2416   39.3267 a2         1 CLA      0.014500
     55 C12        83.7911   58.1496   40.5284 a2         1 CLA     -0.112100
     56 C13        83.7318   59.3857   41.3800 a1         1 CLA      0.089200
     57 C14        85.2426   59.7521   41.8763 a3         1 CLA     -0.239100
     58 C15        82.7226   59.2266   42.6103 a2         1 CLA     -0.102200
     59 C16        81.2311   58.7713   42.3366 a2         1 CLA      0.023900
     60 C17        80.3016   59.0231   43.5953 a2         1 CLA     -0.105700
     61 C18        78.7884   58.7807   43.3422 a1         1 CLA      0.206800
     62 C19        78.5616   57.2386   43.1982 a3         1 CLA     -0.280100
     63 C20        78.0089   59.4506   44.5443 a3         1 CLA     -0.280100
     64 NC         75.2309   59.5533   39.9193 nx         1 CLA     -0.309200
     65 MG         76.5538   59.7145   38.3130 mg         1 CLA      0.895000
     66 HMD3       71.3260   56.7479   36.4010 dc         1 CLA      0.064300
     67 HMD2       72.3571   55.5029   35.9314 dc         1 CLA      0.064300
     68 HMD1       72.2205   55.8399   37.5792 dc         1 CLA      0.064300
     69 HMC3       73.0563   60.2867   43.5496 dc         1 CLA      0.052100
     70 HMC2       74.6409   59.8408   44.1822 dc         1 CLA      0.052100
     71 HMC1       74.3223   61.4149   43.4559 dc         1 CLA      0.052100
     72 HMB3       81.9150   61.8769   40.2686 dc         1 CLA      0.063600
     73 HMB2       81.2508   63.1782   39.1503 dc         1 CLA      0.063600
     74 HMB1       81.1796   63.2692   40.9531 dc         1 CLA      0.063600
     75 HMA3       82.1911   58.9324   36.9066 dc         1 CLA      0.058300
     76 HMA2       81.0259   57.6354   37.0115 dc         1 CLA      0.058300
     77 HMA1       81.8350   57.9617   35.4444 dc         1 CLA      0.058300
     78 HED3       78.2355   53.7196   32.8766 dc         1 CLA      0.079300
     79 HED2       79.3774   54.1158   34.1131 dc         1 CLA      0.079300
     80 HED1       77.8912   53.0712   34.3701 dc         1 CLA      0.079300
     81 HBC3       72.5825   56.3529   41.1764 dc         1 CLA      0.016300
     82 HBC2       73.1880   56.6432   42.8886 dc         1 CLA      0.016300
     83 HBC1       71.3531   56.6509   42.4329 dc         1 CLA      0.016300
     84 HBB2       79.6881   63.6339   44.1095 da         1 CLA      0.183000
     85 HBB1       80.6937   62.4689   43.0742 da         1 CLA      0.183000
     86 HBA2       80.5750   59.4107   31.7606 dc         1 CLA      0.029400
     87 HBA1       81.5169   59.1090   33.2417 dc         1 CLA      0.029400
     88 HAC2       71.8137   58.9266   42.5904 dc         1 CLA      0.029300
     89 HAC1       71.3867   58.4413   41.0862 dc         1 CLA      0.029300
     90 HAA2       78.4901   58.6503   32.8094 dc         1 CLA      0.028700
     91 HAA1       79.0285   60.1556   33.5854 dc         1 CLA      0.028700
     92 H203       77.9395   60.5091   44.4902 dc         1 CLA      0.065600
     93 H202       77.0277   59.0062   44.4975 dc         1 CLA      0.065600
     94 H201       78.4303   59.1305   45.5376 dc         1 CLA      0.065600
     95 H193       77.5683   57.0598   43.5247 dc         1 CLA      0.065600
     96 H192       78.6823   56.9086   42.2142 dc         1 CLA      0.065600
     97 H191       79.2338   56.7032   43.9270 dc         1 CLA      0.065600
     98 H172       80.5774   58.3326   44.3676 dc         1 CLA      0.027600
     99 H171       80.5039   60.0507   43.8683 dc         1 CLA      0.027600
    100 H162       80.7736   59.3316   41.5450 dc         1 CLA      0.002900
    101 H161       81.2102   57.7343   41.9643 dc         1 CLA      0.002900
    102 H152       83.1956   58.5979   43.3191 dc         1 CLA      0.029100
    103 H151       82.6588   60.2617   42.9572 dc         1 CLA      0.029100
    104 H143       85.0983   60.4480   42.6967 dc         1 CLA      0.063600
    105 H142       85.7372   58.8860   42.1952 dc         1 CLA      0.063600
    106 H141       85.7379   60.2227   41.0190 dc         1 CLA      0.063600
    107 H122       82.8173   57.9410   40.2100 dc         1 CLA      0.032500
    108 H121       84.0479   57.3089   41.1385 dc         1 CLA      0.032500
    109 H112       85.8353   58.2701   39.7744 dc         1 CLA      0.006600
    110 H111       84.4858   59.0231   38.5855 dc         1 CLA      0.006600
    111 H102       83.6241   56.5931   38.5032 dc         1 CLA      0.024100
    112 H101       85.3236   56.1399   39.0113 dc         1 CLA      0.024100
    113 HHD        72.5493   57.6929   39.1837 da         1 CLA      0.174300
    114 HHC        76.5733   61.3170   42.4368 da         1 CLA      0.136800
    115 HHB        80.9169   61.1856   37.7623 da         1 CLA      0.138300
    116 HBD        76.1967   57.9911   33.1399 dc         1 CLA      0.107700
    117 HAB        77.7660   63.3880   42.4718 da         1 CLA      0.155200
    118 H93        87.3209   56.4146   37.5922 dc         1 CLA      0.069500
    119 H92        87.4507   57.3309   36.1360 dc         1 CLA      0.069500
    120 H91        87.0375   58.0942   37.6293 dc         1 CLA      0.069500
    121 H8         84.7609   57.7540   36.6008 dc         1 CLA      0.029300
    122 H72        84.0337   55.4629   36.3575 dc         1 CLA      0.044400
    123 H71        85.5640   54.8618   36.6731 dc         1 CLA      0.044400
    124 H62        86.3008   55.8041   34.4380 dc         1 CLA      0.015600
    125 H61        84.7081   56.5958   34.2466 dc         1 CLA      0.015600
    126 H52        85.4347   53.6576   34.6833 dc         1 CLA      0.033200
    127 H51        85.0910   54.1297   33.0640 dc         1 CLA      0.033200
    128 H43        83.5436   51.7529   34.0731 dc         1 CLA      0.037000
    129 H42        83.9668   52.1544   35.7524 dc         1 CLA      0.037000
    130 H41        82.2372   52.3069   35.2614 dc         1 CLA      0.037000
    131 H3A        80.7296   60.2118   35.2137 dc         1 CLA      0.041100
    132 H2A        79.6186   57.5435   34.7632 dc         1 CLA      0.083100
    133 H2         82.2787   55.3015   35.3068 da         1 CLA      0.180900
    134 H18        78.4618   59.2666   42.4494 dc         1 CLA     -0.003900
    135 H13        83.4298   60.2693   40.7613 dc         1 CLA      0.019700
    136 H12        81.1708   54.5512   32.6748 dc         1 CLA      0.120400
    137 H11        82.6331   55.4724   32.3525 dc         1 CLA      0.120400
    138 C1         68.8527   61.7332   49.0658 Z1         2 LUT      0.509236
    139 C2         67.5595   61.4813   49.8951 Z2         2 LUT     -0.434695
    140 C3         66.5958   62.6996   50.1588 Z3         2 LUT      0.437453
    141 O3         66.2448   62.9802   51.5444 S1         2 LUT     -0.547129
    142 C4         66.9045   63.8973   49.2621 Z4         2 LUT     -0.468603
    143 C5         67.4710   63.5085   47.9311 Z5         2 LUT      0.279246
    144 C6         68.4214   62.5701   47.8714 Z6         2 LUT     -0.305473
    145 C7         68.9739   62.1659   46.6164 Z7         2 LUT      0.069402
    146 C8         69.7115   62.9543   45.8025 Z8         2 LUT     -0.191631
    147 C9         70.2918   62.5192   44.5198 Z9         2 LUT      0.196698
    148 C10        71.3571   63.2321   43.9987 Y1         2 LUT     -0.208611
    149 C11        72.1846   63.2168   42.8179 Y2         2 LUT      0.030784
    150 C12        73.3311   63.9345   42.5809 Y3         2 LUT     -0.220316
    151 C13        74.1708   63.8643   41.3732 Y4         2 LUT      0.215937
    152 C14        75.3463   64.6489   41.3501 Y5         2 LUT     -0.185793
    153 C15        76.3257   64.7491   40.2757 Y6         2 LUT     -0.057835
    154 C16        69.4417   60.3223   48.7988 Y7         2 LUT     -0.405615
    155 C17        69.8188   62.3774   50.0994 Y7         2 LUT     -0.405615
    156 C18        67.0805   64.4087   46.7854 Y9         2 LUT     -0.369639
    157 C19        69.8542   61.2488   43.8705 W1         2 LUT     -0.333362
    158 C20        73.6343   63.0707   40.1853 W2         2 LUT     -0.323439
    159 C21        88.0356   66.3606   34.4221 Z1         2 LUT      0.406104
    160 C22        88.8035   65.7790   33.1120 Z2         2 LUT     -0.404965
    161 C23        89.0069   66.8402   32.0292 Z3         2 LUT      0.391255
    162 O23        89.7739   66.3585   30.9571 S1         2 LUT     -0.528210
    163 C24        87.6964   67.5542   31.7526 W6         2 LUT     -0.258361
    164 C25        86.6164   67.6072   32.6086 Z5         2 LUT      0.133546
    165 C26        86.5813   66.8405   33.9731 W8         2 LUT     -0.147008
    166 C27        85.7255   67.4485   35.0932 Z7         2 LUT      0.023843
    167 C28        84.6197   66.9453   35.6259 Z8         2 LUT     -0.216987
    168 C29        83.8133   67.3957   36.8250 Z9         2 LUT      0.206524
    169 C30        82.6686   66.7354   37.2204 Y1         2 LUT     -0.215556
    170 C31        81.8931   66.8332   38.4454 Y2         2 LUT      0.025142
    171 C32        80.6886   66.1844   38.5816 Y3         2 LUT     -0.212209
    172 C33        79.7509   66.1480   39.6665 Y4         2 LUT      0.240937
    173 C34        78.5854   65.3948   39.5084 Y5         2 LUT     -0.218862
    174 C35        77.5697   65.3374   40.4859 Y6         2 LUT     -0.023547
    175 C36        88.7621   67.5142   35.0460 Y7         2 LUT     -0.393485
    176 C37        88.1241   65.1355   35.4031 Y7         2 LUT     -0.393485
    177 C38        85.3256   68.3458   32.2547 Y9         2 LUT     -0.387526
    178 C39        84.0688   68.6842   37.5083 W1         2 LUT     -0.322618
    179 C40        80.2117   66.8720   40.9446 W2         2 LUT     -0.358472
    180 H403       79.5851   66.5250   41.7792 R7         2 LUT      0.097720
    181 H402       81.1726   66.4803   41.2776 R7         2 LUT      0.097720
    182 H401       80.2396   67.9305   40.9684 R7         2 LUT      0.097720
    183 H393       84.6298   69.3584   36.7992 R4         2 LUT      0.082505
    184 H392       83.2157   69.1632   37.9391 R4         2 LUT      0.082505
    185 H391       84.7855   68.5798   38.3332 R4         2 LUT      0.082505
    186 H383       85.3109   69.2891   32.8397 R1         2 LUT      0.104030
    187 H382       85.5210   68.5944   31.1732 R1         2 LUT      0.104030
    188 H381       84.3874   67.7652   32.4687 R1         2 LUT      0.104030
    189 H373       87.5877   64.3356   34.8962 T4         2 LUT      0.089537
    190 H372       89.1993   64.8761   35.4981 T4         2 LUT      0.089537
    191 H371       87.6675   65.2677   36.3564 T4         2 LUT      0.089537
    192 H363       88.8471   68.4602   34.3968 T4         2 LUT      0.089537
    193 H362       88.2140   67.6791   35.9752 T4         2 LUT      0.089537
    194 H361       89.7505   67.3115   35.3265 T4         2 LUT      0.089537
    195 H222       89.8793   65.5381   33.4518 U2         2 LUT      0.127376
    196 H221       88.2673   64.9321   32.6567 U2         2 LUT      0.127376
    197 H203       72.7047   63.4932   39.8826 R7         2 LUT      0.087068
    198 H202       74.3394   63.1497   39.2988 R7         2 LUT      0.087068
    199 H201       73.4143   62.0161   40.4890 R7         2 LUT      0.087068
    200 H193       70.1059   60.4533   44.5573 R4         2 LUT      0.089716
    201 H192       68.7786   61.0912   43.8970 R4         2 LUT      0.089716
    202 H191       70.2210   61.1184   42.7908 R4         2 LUT      0.089716
    203 H183       67.9823   65.0040   46.6422 R1         2 LUT      0.094572
    204 H182       66.9771   63.9025   45.8233 R1         2 LUT      0.094572
    205 H181       66.1420   65.0012   47.0017 R1         2 LUT      0.094572
    206 H173       69.3652   63.2016   50.5249 T4         2 LUT      0.093752
    207 H172       70.0549   61.6626   50.8776 T4         2 LUT      0.093752
    208 H171       70.7826   62.7332   49.6787 T4         2 LUT      0.093752
    209 H163       68.6907   59.5843   48.6295 T4         2 LUT      0.093752
    210 H162       70.0735   60.2810   47.9167 T4         2 LUT      0.093752
    211 H161       70.1400   60.0208   49.5804 T4         2 LUT      0.093752
    212 HO3        67.0250   63.1071   52.1253 Q1         2 LUT      0.300121
    213 H8         69.9265   63.9276   46.1967 U7         2 LUT      0.080784
    214 H7         68.8234   61.1472   46.2735 U6         2 LUT      0.042190
    215 H42        66.0777   64.6343   49.3060 U5         2 LUT      0.145166
    216 H41        67.6265   64.5389   49.8310 U5         2 LUT      0.145166
    217 H35        77.6801   65.5683   41.5285 T3         2 LUT      0.077919
    218 H34        78.4496   64.7673   38.5720 T2         2 LUT      0.073626
    219 H32        80.4737   65.7157   37.6571 T1         2 LUT      0.092510
    220 H31        82.2215   67.4818   39.2771 U9         2 LUT      0.070048
    221 H30        82.5477   65.7738   36.7044 U8         2 LUT      0.085442
    222 H3         65.6651   62.3143   49.7415 U3         2 LUT     -0.031596
    223 H28        84.3598   66.0146   35.2080 U7         2 LUT      0.084728
    224 H27        86.2366   68.3063   35.5743 U6         2 LUT      0.087291
    225 H26        86.0406   65.9508   33.7671 Q6         2 LUT      0.075325
    226 H24        87.6406   67.8853   30.7399 Q5         2 LUT      0.094482
    227 H23        89.6060   67.7939   32.2608 U3         2 LUT     -0.024869
    228 H22        66.9700   60.9169   49.1789 U2         2 LUT      0.127376
    229 H21        67.7088   60.9001   50.8599 U2         2 LUT      0.127376
    230 H15        76.0296   64.3053   39.3859 T3         2 LUT      0.093200
    231 H14        75.5006   65.1674   42.2287 T2         2 LUT      0.068865
    232 H12        73.7048   64.6754   43.2865 T1         2 LUT      0.095507
    233 H11        71.9211   62.4844   42.0294 U9         2 LUT      0.068930
    234 H10        71.6481   64.0317   44.6398 U8         2 LUT      0.083911
    235 H1         89.3838   65.6872   30.4166 Q1         2 LUT      0.297311
@<TRIPOS>BOND
    1     6     1 1
    2     7     2 1
    3     8     3 1
    4     9     4 1
    5    11     4 1
    6    12     6 1
    7    13     9 1
    8    16     9 1
    9    25     5 1
   10    25    16 1
   11    26    10 1
   12    26    17 1
   13    27    18 1
   14    28    14 1
   15    28    19 1
   16    29    12 1
   17    30    13 1
   18    31    24 1
   19    32     1 1
   20    32    25 1
   21    33    21 1
   22    33    26 1
   23    34    22 1
   24    34    27 1
   25    35    23 1
   26    35    28 1
   27    36    12 1
   28    36    24 1
   29    37    13 1
   30    37    15 1
   31    38    31 1
   32    39    20 1
   33    39    32 1
   34    40     2 1
   35    40    33 1
   36    41     3 1
   37    41    34 1
   38    42     4 1
   39    42    35 1
   40    43    38 1
   41    44     5 1
   42    44    17 1
   43    44    39 1
   44    45    10 1
   45    45    18 1
   46    45    40 1
   47    46    19 1
   48    46    41 1
   49    47    14 1
   50    47    16 1
   51    47    42 1
   52    48    38 1
   53    49    48 1
   54    50    49 1
   55    51    50 1
   56    52    51 1
   57    53    51 1
   58    54    53 1
   59    55    54 1
   60    56    55 1
   61    57    56 1
   62    58    56 1
   63    59    58 1
   64    60    59 1
   65    61    60 1
   66    62    61 1
   67    63    61 1
   68    64    27 1
   69    64    46 1
   70    65     5 1
   71    65    10 1
   72    65    64 1
   73    65    14 1
   74    66    23 1
   75    67    23 1
   76    68    23 1
   77    69    22 1
   78    70    22 1
   79    71    22 1
   80    72    21 1
   81    73    21 1
   82    74    21 1
   83    75    20 1
   84    76    20 1
   85    77    20 1
   86    78    15 1
   87    79    15 1
   88    80    15 1
   89    81     8 1
   90    82     8 1
   91    83     8 1
   92    84     7 1
   93    85     7 1
   94    86     6 1
   95    87     6 1
   96    88     3 1
   97    89     3 1
   98    90     1 1
   99    91     1 1
  100    92    63 1
  101    93    63 1
  102    94    63 1
  103    95    62 1
  104    96    62 1
  105    97    62 1
  106    98    60 1
  107    99    60 1
  108   100    59 1
  109   101    59 1
  110   102    58 1
  111   103    58 1
  112   104    57 1
  113   105    57 1
  114   106    57 1
  115   107    55 1
  116   108    55 1
  117   109    54 1
  118   110    54 1
  119   111    53 1
  120   112    53 1
  121   113    19 1
  122   114    18 1
  123   115    17 1
  124   116     9 1
  125   117     2 1
  126   118    52 1
  127   119    52 1
  128   120    52 1
  129   121    51 1
  130   122    50 1
  131   123    50 1
  132   124    49 1
  133   125    49 1
  134   126    48 1
  135   127    48 1
  136   128    43 1
  137   129    43 1
  138   130    43 1
  139   131    39 1
  140   132    32 1
  141   133    31 1
  142   134    61 1
  143   135    56 1
  144   136    24 1
  145   137    24 1
  146   139   138 1
  147   140   139 1
  148   141   140 1
  149   142   140 1
  150   143   142 1
  151   144   138 1
  152   144   143 1
  153   145   144 1
  154   146   145 1
  155   147   146 1
  156   148   147 1
  157   149   148 1
  158   150   149 1
  159   151   150 1
  160   152   151 1
  161   153   152 1
  162   154   138 1
  163   155   138 1
  164   156   143 1
  165   157   147 1
  166   158   151 1
  167   160   159 1
  168   161   160 1
  169   162   161 1
  170   163   161 1
  171   164   163 1
  172   165   159 1
  173   165   164 1
  174   166   165 1
  175   167   166 1
  176   168   167 1
  177   169   168 1
  178   170   169 1
  179   171   170 1
  180   172   171 1
  181   173   172 1
  182   174   153 1
  183   174   173 1
  184   175   159 1
  185   176   159 1
  186   177   164 1
  187   178   168 1
  188   179   172 1
  189   180   179 1
  190   181   179 1
  191   182   179 1
  192   183   178 1
  193   184   178 1
  194   185   178 1
  195   186   177 1
  196   187   177 1
  197   188   177 1
  198   189   176 1
  199   190   176 1
  200   191   176 1
  201   192   175 1
  202   193   175 1
  203   194   175 1
  204   195   160 1
  205   196   160 1
  206   197   158 1
  207   198   158 1
  208   199   158 1
  209   200   157 1
  210   201   157 1
  211   202   157 1
  212   203   156 1
  213   204   156 1
  214   205   156 1
  215   206   155 1
  216   207   155 1
  217   208   155 1
  218   209   154 1
  219   210   154 1
  220   211   154 1
  221   212   141 1
  222   213   146 1
  223   214   145 1
  224   215   142 1
  225   216   142 1
  226   217   174 1
  227   218   173 1
  228   219   171 1
  229   220   170 1
  230   221   169 1
  231   222   140 1
  232   223   167 1
  233   224   166 1
  234   225   165 1
  235   226   163 1
  236   227   161 1
  237   228   139 1
  238   229   139 1
  239   230   153 1
  240   231   152 1
  241   232   150 1
  242   233   149 1
  243   234   148 1
  244   235   162 1
  245   65    153 1
  246   65    174 1
@<TRIPOS>SUBSTRUCTURE
      1 CLA               1 ****               0 ****  **** 
      2 LUT             138 ****               0 ****  **** 
