@<TRIPOS>MOLECULE
Cpptraj generated mol2 file.
  235   246     2     0     0
SMALL
USER_CHARGES


@<TRIPOS>ATOM
      1 CAA        77.9082   58.6919   33.7461 a2         1 CLA     -0.055900
      2 CAB        77.8252   61.9382   42.9557 c8         1 CLA     -0.148500
      3 CAC        70.8588   57.8162   42.3091 a2         1 CLA     -0.012600
      4 CAD        73.7795   55.7610   34.9731 ck         1 CLA      0.398800
      5 NA         76.8907   58.8022   37.1885 ns         1 CLA     -0.225500
      6 CBA        79.1866   58.8466   32.8827 a2         1 CLA     -0.135000
      7 CBB        79.0164   62.4690   43.4720 c0         1 CLA     -0.395200
      8 CBC        70.5347   56.3000   42.0710 a3         1 CLA     -0.037700
      9 CBD        75.2674   56.4084   34.6619 a1         1 CLA     -0.053900
     10 NB         76.7038   60.2009   39.8704 nm         1 CLA     -0.295700
     11 OBD        73.1493   54.9931   34.2188 o2         1 CLA     -0.494600
     12 CGA        79.8282   57.5442   32.3422 c4         1 CLA      0.827000
     13 CGD        76.2003   55.3380   34.2014 c4         1 CLA      0.655300
     14 ND         74.1866   57.6632   37.9080 nm         1 CLA     -0.291600
     15 CED        76.8248   53.0222   34.4163 a3         1 CLA      0.005400
     16 CHA        75.6314   57.2279   35.8945 cs         1 CLA     -0.123800
     17 CHB        78.6560   60.0862   38.3158 aa         1 CLA     -0.291900
     18 CHC        75.3926   60.2316   41.9865 aa         1 CLA     -0.090400
     19 CHD        72.2926   57.6485   39.3956 aa         1 CLA     -0.052000
     20 CMA        80.3056   58.2297   36.4091 a3         1 CLA     -0.230700
     21 CMB        79.8989   62.1826   40.2943 a3         1 CLA     -0.180800
     22 CMC        73.0231   59.7166   44.0400 a3         1 CLA     -0.134000
     23 CMD        71.0291   55.8923   36.8075 a3         1 CLA     -0.141100
     24 C1         80.7815   55.5108   33.0450 a2         1 CLA      0.023000
     25 C1A        76.7562   58.0263   36.0618 ac         1 CLA     -0.015100
     26 C1B        78.0037   60.5947   39.4733 cr         1 CLA      0.054700
     27 C1C        74.2569   59.4950   41.6504 cn         1 CLA     -0.005600
     28 C1D        72.8840   57.2692   38.1819 ap         1 CLA     -0.047300
     29 O1A        79.6686   56.9987   31.2768 o2         1 CLA     -0.610800
     30 O1D        77.0469   55.4905   33.3558 o2         1 CLA     -0.558200
     31 C2         81.2937   54.8797   34.2981 c8         1 CLA     -0.325100
     32 C2A        78.0763   58.0353   35.1782 a1         1 CLA      0.098600
     33 C2B        78.5691   61.4614   40.4668 cb         1 CLA      0.088500
     34 C2C        73.1685   59.2099   42.5396 cb         1 CLA      0.053700
     35 C2D        72.3636   56.4122   37.1242 cb         1 CLA      0.058900
     36 O2A        80.4988   56.8911   33.3570 o1         1 CLA     -0.437200
     37 O2D        76.0471   54.1578   34.9122 o1         1 CLA     -0.357600
     38 C3         82.1666   53.8880   34.4732 c5         1 CLA      0.031200
     39 C3A        79.0041   58.9121   35.9962 a1         1 CLA      0.166800
     40 C3B        77.6902   61.4340   41.5899 cb         1 CLA      0.035000
     41 C3C        72.2278   58.4007   41.8250 cb         1 CLA     -0.089900
     42 C3D        73.4156   56.3656   36.2181 cb         1 CLA     -0.035900
     43 C4         81.7207   52.4105   34.5929 a3         1 CLA     -0.053300
     44 C4A        78.1791   59.3062   37.2550 ac         1 CLA      0.001800
     45 C4B        76.5163   60.6391   41.2209 cn         1 CLA     -0.020900
     46 C4C        72.8303   58.3495   40.4759 cr         1 CLA     -0.044400
     47 C4D        74.5178   57.1287   36.6948 c6         1 CLA     -0.046000
     48 C5         83.6437   54.0142   34.3258 a2         1 CLA     -0.070400
     49 C6         84.2557   55.4102   34.7392 a2         1 CLA      0.043900
     50 C7         84.1609   55.6006   36.2343 a2         1 CLA     -0.150000
     51 C8         84.9073   56.8320   36.8528 a1         1 CLA      0.064200
     52 C9         86.4318   56.9539   36.5773 a3         1 CLA     -0.259300
     53 C10        84.6849   56.8441   38.3836 a2         1 CLA     -0.071900
     54 C11        83.1832   56.9454   38.7974 a2         1 CLA      0.014500
     55 C12        83.1524   57.1201   40.2707 a2         1 CLA     -0.112100
     56 C13        81.7933   57.2300   40.9103 a1         1 CLA      0.089200
     57 C14        81.0306   58.5675   40.4109 a3         1 CLA     -0.239100
     58 C15        81.8858   56.9512   42.4508 a2         1 CLA     -0.102200
     59 C16        82.0242   58.1829   43.3853 a2         1 CLA      0.023900
     60 C17        83.2080   59.1001   43.1204 a2         1 CLA     -0.105700
     61 C18        83.5683   60.1601   44.1941 a1         1 CLA      0.206800
     62 C19        82.6534   61.3867   44.4140 a3         1 CLA     -0.280100
     63 C20        83.9907   59.3743   45.5000 a3         1 CLA     -0.280100
     64 NC         74.0266   58.9171   40.4522 nx         1 CLA     -0.309200
     65 MG         75.3325   58.9719   38.8088 mg         1 CLA      0.895000
     66 HMD3       70.8430   55.9569   35.7611 dc         1 CLA      0.064300
     67 HMD2       70.9732   54.8630   37.0267 dc         1 CLA      0.064300
     68 HMD1       70.2429   56.4649   37.2815 dc         1 CLA      0.064300
     69 HMC3       71.9676   59.8733   44.3782 dc         1 CLA      0.052100
     70 HMC2       73.5182   58.9985   44.6427 dc         1 CLA      0.052100
     71 HMC1       73.4719   60.6672   44.1756 dc         1 CLA      0.052100
     72 HMB3       80.6032   61.6231   40.6962 dc         1 CLA      0.063600
     73 HMB2       80.0597   62.3734   39.2607 dc         1 CLA      0.063600
     74 HMB1       79.7505   63.1186   40.8922 dc         1 CLA      0.063600
     75 HMA3       80.9753   58.9249   36.9975 dc         1 CLA      0.058300
     76 HMA2       80.2121   57.3154   37.0124 dc         1 CLA      0.058300
     77 HMA1       80.7518   57.9902   35.4659 dc         1 CLA      0.058300
     78 HED3       76.8645   53.0223   33.3152 dc         1 CLA      0.079300
     79 HED2       77.7732   53.1083   34.8506 dc         1 CLA      0.079300
     80 HED1       76.4117   52.1197   34.8361 dc         1 CLA      0.079300
     81 HBC3       69.9334   55.9513   42.8675 dc         1 CLA      0.016300
     82 HBC2       70.0056   56.1807   41.1745 dc         1 CLA      0.016300
     83 HBC1       71.4832   55.8778   41.9611 dc         1 CLA      0.016300
     84 HBB2       78.9990   62.7488   44.4867 da         1 CLA      0.183000
     85 HBB1       79.9797   62.5807   42.9106 da         1 CLA      0.183000
     86 HBA2       78.9498   59.4107   31.9644 dc         1 CLA      0.029400
     87 HBA1       79.9370   59.3326   33.4207 dc         1 CLA      0.029400
     88 HAC2       70.9007   57.8756   43.4021 dc         1 CLA      0.029300
     89 HAC1       70.0908   58.4823   41.9672 dc         1 CLA      0.029300
     90 HAA2       77.1601   58.1917   33.1674 dc         1 CLA      0.028700
     91 HAA1       77.5092   59.7391   33.7898 dc         1 CLA      0.028700
     92 H203       84.2392   60.0799   46.2348 dc         1 CLA      0.065600
     93 H202       83.0961   58.8246   45.8262 dc         1 CLA      0.065600
     94 H201       84.8948   58.7053   45.4134 dc         1 CLA      0.065600
     95 H193       82.5125   62.0002   43.4840 dc         1 CLA      0.065600
     96 H192       81.5986   61.0243   44.5577 dc         1 CLA      0.065600
     97 H191       83.0293   62.0468   45.2394 dc         1 CLA      0.065600
     98 H172       84.1164   58.5582   42.9184 dc         1 CLA      0.027600
     99 H171       83.0626   59.7285   42.2301 dc         1 CLA      0.027600
    100 H162       81.0645   58.6332   43.2828 dc         1 CLA      0.002900
    101 H161       81.9971   57.8307   44.4055 dc         1 CLA      0.002900
    102 H152       80.9569   56.5116   42.7420 dc         1 CLA      0.029100
    103 H151       82.6654   56.2250   42.5647 dc         1 CLA      0.029100
    104 H143       80.1741   58.7870   41.0860 dc         1 CLA      0.063600
    105 H142       81.7140   59.3966   40.5512 dc         1 CLA      0.063600
    106 H141       80.8555   58.3685   39.3706 dc         1 CLA      0.063600
    107 H122       83.5024   56.1814   40.6677 dc         1 CLA      0.032500
    108 H121       83.6571   57.9958   40.7121 dc         1 CLA      0.032500
    109 H112       82.8295   57.8835   38.4744 dc         1 CLA      0.006600
    110 H111       82.6222   56.0308   38.5587 dc         1 CLA      0.006600
    111 H102       85.1120   55.9187   38.8355 dc         1 CLA      0.024100
    112 H101       85.0760   57.7757   38.8580 dc         1 CLA      0.024100
    113 HHD        71.3620   57.1671   39.7040 da         1 CLA      0.174300
    114 HHC        75.3247   60.5458   42.9923 da         1 CLA      0.136800
    115 HHB        79.6799   60.2116   38.1242 da         1 CLA      0.138300
    116 HBD        75.1117   57.0955   33.8140 dc         1 CLA      0.107700
    117 HAB        76.9989   61.7020   43.6926 da         1 CLA      0.155200
    118 H93        86.9215   56.0862   36.9870 dc         1 CLA      0.069500
    119 H92        86.6046   57.1554   35.4998 dc         1 CLA      0.069500
    120 H91        86.8590   57.7814   37.0314 dc         1 CLA      0.069500
    121 H8         84.4145   57.7411   36.6232 dc         1 CLA      0.029300
    122 H72        83.0642   55.7683   36.3473 dc         1 CLA      0.044400
    123 H71        84.5574   54.6928   36.7278 dc         1 CLA      0.044400
    124 H62        85.3056   55.3993   34.4381 dc         1 CLA      0.015600
    125 H61        83.7728   56.2412   34.2368 dc         1 CLA      0.015600
    126 H52        84.1817   53.1979   34.7132 dc         1 CLA      0.033200
    127 H51        83.7602   53.8182   33.2052 dc         1 CLA      0.033200
    128 H43        80.5889   52.3541   34.7050 dc         1 CLA      0.037000
    129 H42        82.1197   51.9921   33.6668 dc         1 CLA      0.037000
    130 H41        82.2489   51.9793   35.4372 dc         1 CLA      0.037000
    131 H3A        79.2534   59.8077   35.5313 dc         1 CLA      0.041100
    132 H2A        78.3964   57.0124   35.1841 dc         1 CLA      0.083100
    133 H2         80.9000   55.3972   35.1506 da         1 CLA      0.180900
    134 H18        84.5755   60.5495   43.9477 dc         1 CLA     -0.003900
    135 H13        81.1790   56.4162   40.4582 dc         1 CLA      0.019700
    136 H12        79.9351   54.9155   32.7689 dc         1 CLA      0.120400
    137 H11        81.4840   55.2531   32.2252 dc         1 CLA      0.120400
    138 C1         68.7742   61.0108   49.3694 Z1         2 LUT      0.509236
    139 C2         68.1705   61.3813   50.8361 Z2         2 LUT     -0.434695
    140 C3         66.7140   61.6862   50.8237 Z3         2 LUT      0.437453
    141 O3         66.3585   61.9763   52.2070 S1         2 LUT     -0.547129
    142 C4         66.5359   62.8191   49.7519 Z4         2 LUT     -0.468603
    143 C5         67.1436   62.6220   48.4105 Z5         2 LUT      0.279246
    144 C6         68.1282   61.7153   48.2441 Z6         2 LUT     -0.305473
    145 C7         68.7179   61.5738   46.8697 Z7         2 LUT      0.069402
    146 C8         69.6933   62.2687   46.1595 Z8         2 LUT     -0.191631
    147 C9         70.0351   61.9421   44.7988 Z9         2 LUT      0.196698
    148 C10        71.0449   62.6412   44.2215 Y1         2 LUT     -0.208611
    149 C11        71.7405   62.5045   42.9552 Y2         2 LUT      0.030784
    150 C12        72.8106   63.3270   42.7641 Y3         2 LUT     -0.220316
    151 C13        73.7311   63.2556   41.6284 Y4         2 LUT      0.215937
    152 C14        74.8525   64.1027   41.6163 Y5         2 LUT     -0.185793
    153 C15        76.0089   64.1156   40.7950 Y6         2 LUT     -0.057835
    154 C16        68.4410   59.5144   49.1504 Y7         2 LUT     -0.405615
    155 C17        70.2740   60.8916   49.4121 Y7         2 LUT     -0.405615
    156 C18        66.6669   63.6652   47.4434 Y9         2 LUT     -0.369639
    157 C19        69.3470   60.8400   44.0949 W1         2 LUT     -0.333362
    158 C20        73.3312   62.6330   40.3667 W2         2 LUT     -0.323439
    159 C21        87.1042   65.7477   34.6886 Z1         2 LUT      0.406104
    160 C22        87.7452   65.2323   33.4066 Z2         2 LUT     -0.404965
    161 C23        87.6564   66.3153   32.3055 Z3         2 LUT      0.391255
    162 O23        88.2793   65.7848   31.1114 S1         2 LUT     -0.528210
    163 C24        86.3779   67.1767   32.2108 W6         2 LUT     -0.258361
    164 C25        85.5468   67.2889   33.2035 Z5         2 LUT      0.133546
    165 C26        85.6787   66.3611   34.4314 W8         2 LUT     -0.147008
    166 C27        85.0934   67.0656   35.6342 Z7         2 LUT      0.023843
    167 C28        84.0629   66.6306   36.3338 Z8         2 LUT     -0.216987
    168 C29        83.5210   67.0204   37.6128 Z9         2 LUT      0.206524
    169 C30        82.4401   66.2872   37.9336 Y1         2 LUT     -0.215556
    170 C31        81.4306   66.4988   39.0368 Y2         2 LUT      0.025142
    171 C32        80.3859   65.7516   39.2317 Y3         2 LUT     -0.212209
    172 C33        79.3895   65.8084   40.2431 Y4         2 LUT      0.240937
    173 C34        78.1997   65.1702   40.0688 Y5         2 LUT     -0.218862
    174 C35        77.0933   65.0090   40.9667 Y6         2 LUT     -0.023547
    175 C36        88.0993   66.7640   35.2529 Y7         2 LUT     -0.393485
    176 C37        87.0674   64.5016   35.6412 Y7         2 LUT     -0.393485
    177 C38        84.2450   67.9429   32.9004 Y9         2 LUT     -0.387526
    178 C39        84.0762   68.1494   38.4483 W1         2 LUT     -0.322618
    179 C40        79.8620   66.2863   41.5292 W2         2 LUT     -0.358472
    180 H403       80.7793   66.8967   41.5011 R7         2 LUT      0.097720
    181 H402       79.1105   66.8649   42.1450 R7         2 LUT      0.097720
    182 H401       80.3100   65.4660   42.0705 R7         2 LUT      0.097720
    183 H393       83.5467   69.0337   38.1875 R4         2 LUT      0.082505
    184 H392       83.9775   67.8592   39.5206 R4         2 LUT      0.082505
    185 H391       85.0848   68.4461   38.3363 R4         2 LUT      0.082505
    186 H383       84.0631   68.7699   33.5774 R1         2 LUT      0.104030
    187 H382       84.2340   68.3980   31.9239 R1         2 LUT      0.104030
    188 H381       83.4006   67.2709   32.8007 R1         2 LUT      0.104030
    189 H373       86.5782   63.6023   35.1348 T4         2 LUT      0.089537
    190 H372       88.0550   64.1056   35.8360 T4         2 LUT      0.089537
    191 H371       86.6644   64.7499   36.6354 T4         2 LUT      0.089537
    192 H363       88.0448   67.6907   34.7256 T4         2 LUT      0.089537
    193 H362       87.8895   67.1117   36.2386 T4         2 LUT      0.089537
    194 H361       89.1015   66.4572   35.3445 T4         2 LUT      0.089537
    195 H222       88.8029   65.0469   33.5989 U2         2 LUT      0.127376
    196 H221       87.2577   64.3525   33.0457 U2         2 LUT      0.127376
    197 H203       72.6321   63.2867   39.8456 R7         2 LUT      0.087068
    198 H202       74.1863   62.3988   39.7738 R7         2 LUT      0.087068
    199 H201       72.9346   61.7033   40.6382 R7         2 LUT      0.087068
    200 H193       68.2541   60.7939   44.1790 R4         2 LUT      0.089716
    201 H192       69.3542   60.9268   43.0126 R4         2 LUT      0.089716
    202 H191       69.7046   59.9590   44.4727 R4         2 LUT      0.089716
    203 H183       65.6023   63.8977   47.4031 R1         2 LUT      0.094572
    204 H182       67.2073   64.6581   47.5977 R1         2 LUT      0.094572
    205 H181       66.8909   63.4296   46.4008 R1         2 LUT      0.094572
    206 H173       70.7045   60.4852   50.3595 T4         2 LUT      0.093752
    207 H172       70.6772   60.2268   48.5947 T4         2 LUT      0.093752
    208 H171       70.8415   61.7892   49.2712 T4         2 LUT      0.093752
    209 H163       68.6092   58.8310   50.0335 T4         2 LUT      0.093752
    210 H162       67.3557   59.4097   49.0397 T4         2 LUT      0.093752
    211 H161       68.9693   59.0428   48.2931 T4         2 LUT      0.093752
    212 HO3        65.3553   61.9045   52.2515 Q1         2 LUT      0.300121
    213 H8         70.2845   63.0608   46.5822 U7         2 LUT      0.080784
    214 H7         68.2807   60.7885   46.3335 U6         2 LUT      0.042190
    215 H42        65.4750   63.0272   49.6384 U5         2 LUT      0.145166
    216 H41        67.1863   63.6569   50.1172 U5         2 LUT      0.145166
    217 H35        77.1267   65.5853   41.9127 T3         2 LUT      0.077919
    218 H34        78.0926   64.5329   39.2175 T2         2 LUT      0.073626
    219 H32        80.2348   64.9983   38.5110 T1         2 LUT      0.092510
    220 H31        81.6847   67.4077   39.6933 U9         2 LUT      0.070048
    221 H30        82.1347   65.4537   37.2869 U8         2 LUT      0.085442
    222 H3         66.1738   60.8747   50.4162 U3         2 LUT     -0.031596
    223 H28        83.4418   65.9245   35.8091 U7         2 LUT      0.084728
    224 H27        85.5994   67.9433   36.0867 U6         2 LUT      0.087291
    225 H26        85.0700   65.4450   34.1364 Q6         2 LUT      0.075325
    226 H24        86.3592   67.6987   31.2360 Q5         2 LUT      0.094482
    227 H23        88.2953   67.1005   32.7804 U3         2 LUT     -0.024869
    228 H22        68.3695   60.5278   51.4415 U2         2 LUT      0.127376
    229 H21        68.7620   62.1515   51.2913 U2         2 LUT      0.127376
    230 H15        76.0528   63.5636   39.8354 T3         2 LUT      0.093200
    231 H14        74.9810   64.6088   42.5431 T2         2 LUT      0.068865
    232 H12        73.0049   64.1164   43.5059 T1         2 LUT      0.095507
    233 H11        71.4902   61.7434   42.2835 U9         2 LUT      0.068930
    234 H10        71.5871   63.3690   44.8208 U8         2 LUT      0.083911
    235 H1         87.7012   65.1912   30.5952 Q1         2 LUT      0.297311
@<TRIPOS>BOND
    1     6     1 1
    2     7     2 1
    3     8     3 1
    4     9     4 1
    5    11     4 1
    6    12     6 1
    7    13     9 1
    8    16     9 1
    9    25     5 1
   10    25    16 1
   11    26    10 1
   12    26    17 1
   13    27    18 1
   14    28    14 1
   15    28    19 1
   16    29    12 1
   17    30    13 1
   18    31    24 1
   19    32     1 1
   20    32    25 1
   21    33    21 1
   22    33    26 1
   23    34    22 1
   24    34    27 1
   25    35    23 1
   26    35    28 1
   27    36    12 1
   28    36    24 1
   29    37    13 1
   30    37    15 1
   31    38    31 1
   32    39    20 1
   33    39    32 1
   34    40     2 1
   35    40    33 1
   36    41     3 1
   37    41    34 1
   38    42     4 1
   39    42    35 1
   40    43    38 1
   41    44     5 1
   42    44    17 1
   43    44    39 1
   44    45    10 1
   45    45    18 1
   46    45    40 1
   47    46    19 1
   48    46    41 1
   49    47    14 1
   50    47    16 1
   51    47    42 1
   52    48    38 1
   53    49    48 1
   54    50    49 1
   55    51    50 1
   56    52    51 1
   57    53    51 1
   58    54    53 1
   59    55    54 1
   60    56    55 1
   61    57    56 1
   62    58    56 1
   63    59    58 1
   64    60    59 1
   65    61    60 1
   66    62    61 1
   67    63    61 1
   68    64    27 1
   69    64    46 1
   70    65     5 1
   71    65    10 1
   72    65    64 1
   73    65    14 1
   74    66    23 1
   75    67    23 1
   76    68    23 1
   77    69    22 1
   78    70    22 1
   79    71    22 1
   80    72    21 1
   81    73    21 1
   82    74    21 1
   83    75    20 1
   84    76    20 1
   85    77    20 1
   86    78    15 1
   87    79    15 1
   88    80    15 1
   89    81     8 1
   90    82     8 1
   91    83     8 1
   92    84     7 1
   93    85     7 1
   94    86     6 1
   95    87     6 1
   96    88     3 1
   97    89     3 1
   98    90     1 1
   99    91     1 1
  100    92    63 1
  101    93    63 1
  102    94    63 1
  103    95    62 1
  104    96    62 1
  105    97    62 1
  106    98    60 1
  107    99    60 1
  108   100    59 1
  109   101    59 1
  110   102    58 1
  111   103    58 1
  112   104    57 1
  113   105    57 1
  114   106    57 1
  115   107    55 1
  116   108    55 1
  117   109    54 1
  118   110    54 1
  119   111    53 1
  120   112    53 1
  121   113    19 1
  122   114    18 1
  123   115    17 1
  124   116     9 1
  125   117     2 1
  126   118    52 1
  127   119    52 1
  128   120    52 1
  129   121    51 1
  130   122    50 1
  131   123    50 1
  132   124    49 1
  133   125    49 1
  134   126    48 1
  135   127    48 1
  136   128    43 1
  137   129    43 1
  138   130    43 1
  139   131    39 1
  140   132    32 1
  141   133    31 1
  142   134    61 1
  143   135    56 1
  144   136    24 1
  145   137    24 1
  146   139   138 1
  147   140   139 1
  148   141   140 1
  149   142   140 1
  150   143   142 1
  151   144   138 1
  152   144   143 1
  153   145   144 1
  154   146   145 1
  155   147   146 1
  156   148   147 1
  157   149   148 1
  158   150   149 1
  159   151   150 1
  160   152   151 1
  161   153   152 1
  162   154   138 1
  163   155   138 1
  164   156   143 1
  165   157   147 1
  166   158   151 1
  167   160   159 1
  168   161   160 1
  169   162   161 1
  170   163   161 1
  171   164   163 1
  172   165   159 1
  173   165   164 1
  174   166   165 1
  175   167   166 1
  176   168   167 1
  177   169   168 1
  178   170   169 1
  179   171   170 1
  180   172   171 1
  181   173   172 1
  182   174   153 1
  183   174   173 1
  184   175   159 1
  185   176   159 1
  186   177   164 1
  187   178   168 1
  188   179   172 1
  189   180   179 1
  190   181   179 1
  191   182   179 1
  192   183   178 1
  193   184   178 1
  194   185   178 1
  195   186   177 1
  196   187   177 1
  197   188   177 1
  198   189   176 1
  199   190   176 1
  200   191   176 1
  201   192   175 1
  202   193   175 1
  203   194   175 1
  204   195   160 1
  205   196   160 1
  206   197   158 1
  207   198   158 1
  208   199   158 1
  209   200   157 1
  210   201   157 1
  211   202   157 1
  212   203   156 1
  213   204   156 1
  214   205   156 1
  215   206   155 1
  216   207   155 1
  217   208   155 1
  218   209   154 1
  219   210   154 1
  220   211   154 1
  221   212   141 1
  222   213   146 1
  223   214   145 1
  224   215   142 1
  225   216   142 1
  226   217   174 1
  227   218   173 1
  228   219   171 1
  229   220   170 1
  230   221   169 1
  231   222   140 1
  232   223   167 1
  233   224   166 1
  234   225   165 1
  235   226   163 1
  236   227   161 1
  237   228   139 1
  238   229   139 1
  239   230   153 1
  240   231   152 1
  241   232   150 1
  242   233   149 1
  243   234   148 1
  244   235   162 1
  245   65    153 1
  246   65    174 1
@<TRIPOS>SUBSTRUCTURE
      1 CLA               1 ****               0 ****  **** 
      2 LUT             138 ****               0 ****  **** 
