@<TRIPOS>MOLECULE
Cpptraj generated mol2 file.
  235   246     2     0     0
SMALL
USER_CHARGES


@<TRIPOS>ATOM
      1 CAA        77.8663   57.9785   33.8687 a2         1 CLA     -0.055900
      2 CAB        78.3127   61.5401   42.7126 c8         1 CLA     -0.148500
      3 CAC        71.3247   57.5520   42.6169 a2         1 CLA     -0.012600
      4 CAD        73.7020   55.4745   35.0507 ck         1 CLA      0.398800
      5 NA         76.9870   58.1898   37.2056 ns         1 CLA     -0.225500
      6 CBA        78.9933   57.8142   32.8981 a2         1 CLA     -0.135000
      7 CBB        79.5143   61.4955   43.2618 c0         1 CLA     -0.395200
      8 CBC        71.1289   56.0566   42.3131 a3         1 CLA     -0.037700
      9 CBD        75.1548   55.8985   34.7441 a1         1 CLA     -0.053900
     10 NB         77.0760   59.6199   39.7225 nm         1 CLA     -0.295700
     11 OBD        73.0349   54.7070   34.3246 o2         1 CLA     -0.494600
     12 CGA        79.2663   56.4625   32.3790 c4         1 CLA      0.827000
     13 CGD        76.0536   54.6728   34.3919 c4         1 CLA      0.655300
     14 ND         74.3062   57.3748   37.8429 nm         1 CLA     -0.291600
     15 CED        76.4438   52.2888   34.8125 a3         1 CLA      0.005400
     16 CHA        75.5992   56.7908   35.8705 cs         1 CLA     -0.123800
     17 CHB        78.7811   59.5553   38.0861 aa         1 CLA     -0.291900
     18 CHC        75.7408   59.8647   41.8400 aa         1 CLA     -0.090400
     19 CHD        72.4201   57.2607   39.5481 aa         1 CLA     -0.052000
     20 CMA        80.2948   57.1439   36.6531 a3         1 CLA     -0.230700
     21 CMB        80.3262   61.4314   40.1828 a3         1 CLA     -0.180800
     22 CMC        73.5590   59.5268   44.0241 a3         1 CLA     -0.134000
     23 CMD        71.0095   55.5061   37.3649 a3         1 CLA     -0.141100
     24 C1         79.8497   54.2326   33.1146 a2         1 CLA      0.023000
     25 C1A        76.8416   57.3621   36.1208 ac         1 CLA     -0.015100
     26 C1B        78.3116   59.9911   39.3178 cr         1 CLA      0.054700
     27 C1C        74.5806   59.2007   41.6509 cn         1 CLA     -0.005600
     28 C1D        73.0751   56.8731   38.3430 ap         1 CLA     -0.047300
     29 O1A        79.0264   56.0452   31.2535 o2         1 CLA     -0.610800
     30 O1D        76.6214   54.4783   33.3321 o2         1 CLA     -0.558200
     31 C2         80.2761   53.6144   34.3300 c8         1 CLA     -0.325100
     32 C2A        78.0676   57.3404   35.2010 a1         1 CLA      0.098600
     33 C2B        78.9201   60.7740   40.3145 cb         1 CLA      0.088500
     34 C2C        73.4751   58.9693   42.5688 cb         1 CLA      0.053700
     35 C2D        72.4118   56.0722   37.3264 cb         1 CLA      0.058900
     36 O2A        79.8580   55.6671   33.3377 o1         1 CLA     -0.437200
     37 O2D        76.0155   53.6821   35.2868 o1         1 CLA     -0.357600
     38 C3         80.9501   52.4614   34.4376 c5         1 CLA      0.031200
     39 C3A        79.1182   58.0448   36.0412 a1         1 CLA      0.166800
     40 C3B        78.0496   60.8596   41.3837 cb         1 CLA      0.035000
     41 C3C        72.5183   58.1776   42.0121 cb         1 CLA     -0.089900
     42 C3D        73.4022   56.0824   36.3193 cb         1 CLA     -0.035900
     43 C4         80.2628   51.1557   34.6544 a3         1 CLA     -0.053300
     44 C4A        78.2718   58.7000   37.1613 ac         1 CLA      0.001800
     45 C4B        76.8735   60.0835   40.9935 cn         1 CLA     -0.020900
     46 C4C        73.0236   58.0076   40.6027 cr         1 CLA     -0.044400
     47 C4D        74.5160   56.7908   36.7165 c6         1 CLA     -0.046000
     48 C5         82.4371   52.4637   34.3625 a2         1 CLA     -0.070400
     49 C6         83.1496   53.6636   34.9815 a2         1 CLA      0.043900
     50 C7         83.0946   53.7403   36.4627 a2         1 CLA     -0.150000
     51 C8         83.9475   54.9388   36.9854 a1         1 CLA      0.064200
     52 C9         85.4170   55.0267   36.5560 a3         1 CLA     -0.259300
     53 C10        83.8091   55.0520   38.5179 a2         1 CLA     -0.071900
     54 C11        82.4468   55.3882   39.0848 a2         1 CLA      0.014500
     55 C12        82.3966   55.7413   40.6163 a2         1 CLA     -0.112100
     56 C13        81.0245   56.2703   41.2308 a1         1 CLA      0.089200
     57 C14        80.4193   57.4438   40.4115 a3         1 CLA     -0.239100
     58 C15        81.2241   56.5778   42.7657 a2         1 CLA     -0.102200
     59 C16        82.3783   57.5353   43.1530 a2         1 CLA      0.023900
     60 C17        82.2093   58.0571   44.5778 a2         1 CLA     -0.105700
     61 C18        83.2018   59.0747   45.2146 a1         1 CLA      0.206800
     62 C19        84.6407   58.5974   45.3038 a3         1 CLA     -0.280100
     63 C20        83.1201   60.5098   44.4922 a3         1 CLA     -0.280100
     64 NC         74.3058   58.5886   40.4941 nx         1 CLA     -0.309200
     65 MG         75.5793   58.5201   38.7820 mg         1 CLA      0.895000
     66 HMD3       70.2889   56.3426   37.4479 dc         1 CLA      0.064300
     67 HMD2       70.8540   54.7980   36.5272 dc         1 CLA      0.064300
     68 HMD1       70.8506   54.8873   38.2355 dc         1 CLA      0.064300
     69 HMC3       72.6368   59.2405   44.5182 dc         1 CLA      0.052100
     70 HMC2       74.4774   59.2632   44.5544 dc         1 CLA      0.052100
     71 HMC1       73.6054   60.6075   43.9606 dc         1 CLA      0.052100
     72 HMB3       80.6176   61.5082   39.1148 dc         1 CLA      0.063600
     73 HMB2       80.4140   62.4374   40.6326 dc         1 CLA      0.063600
     74 HMB1       81.0123   60.8424   40.7801 dc         1 CLA      0.063600
     75 HMA3       81.0160   57.8336   37.1140 dc         1 CLA      0.058300
     76 HMA2       79.8243   56.4547   37.3690 dc         1 CLA      0.058300
     77 HMA1       80.7924   56.5570   35.8588 dc         1 CLA      0.058300
     78 HED3       77.4862   52.4601   34.4666 dc         1 CLA      0.079300
     79 HED2       76.5000   51.5107   35.5740 dc         1 CLA      0.079300
     80 HED1       75.8053   51.9061   33.9784 dc         1 CLA      0.079300
     81 HBC3       70.5495   55.6065   43.0868 dc         1 CLA      0.016300
     82 HBC2       70.5689   55.8571   41.3791 dc         1 CLA      0.016300
     83 HBC1       72.1704   55.6207   42.1850 dc         1 CLA      0.016300
     84 HBB2       79.6802   62.0713   44.1416 da         1 CLA      0.183000
     85 HBB1       80.3643   60.8559   42.9298 da         1 CLA      0.183000
     86 HBA2       78.7951   58.4913   31.9967 dc         1 CLA      0.029400
     87 HBA1       79.9477   58.2325   33.2970 dc         1 CLA      0.029400
     88 HAC2       71.3639   57.6242   43.7648 dc         1 CLA      0.029300
     89 HAC1       70.4134   58.0928   42.3458 dc         1 CLA      0.029300
     90 HAA2       76.9976   57.5362   33.3959 dc         1 CLA      0.028700
     91 HAA1       77.8313   59.0579   34.0370 dc         1 CLA      0.028700
     92 H203       83.5670   61.1552   45.1804 dc         1 CLA      0.065600
     93 H202       83.6637   60.4853   43.5552 dc         1 CLA      0.065600
     94 H201       82.1545   60.7414   44.1474 dc         1 CLA      0.065600
     95 H193       85.1305   59.3719   45.7825 dc         1 CLA      0.065600
     96 H192       84.6516   57.6449   45.8342 dc         1 CLA      0.065600
     97 H191       85.0871   58.6065   44.3477 dc         1 CLA      0.065600
     98 H172       81.1974   58.5140   44.7974 dc         1 CLA      0.027600
     99 H171       82.3252   57.0966   45.1334 dc         1 CLA      0.027600
    100 H162       83.3586   57.1221   42.8840 dc         1 CLA      0.002900
    101 H161       82.2058   58.3916   42.5186 dc         1 CLA      0.002900
    102 H152       80.2323   56.9693   43.1699 dc         1 CLA      0.029100
    103 H151       81.2288   55.5598   43.2830 dc         1 CLA      0.029100
    104 H143       81.1462   58.2594   40.1005 dc         1 CLA      0.063600
    105 H142       79.9313   56.9764   39.5810 dc         1 CLA      0.063600
    106 H141       79.5346   57.8159   40.9359 dc         1 CLA      0.063600
    107 H122       82.7684   54.8420   41.1323 dc         1 CLA      0.032500
    108 H121       83.1803   56.5096   40.6787 dc         1 CLA      0.032500
    109 H112       82.0829   56.2349   38.5451 dc         1 CLA      0.006600
    110 H111       81.8168   54.4783   39.0470 dc         1 CLA      0.006600
    111 H102       84.2333   54.0903   38.9793 dc         1 CLA      0.024100
    112 H101       84.5899   55.8108   38.6949 dc         1 CLA      0.024100
    113 HHD        71.4810   56.6980   39.6956 da         1 CLA      0.174300
    114 HHC        75.7864   60.3449   42.8052 da         1 CLA      0.136800
    115 HHB        79.8020   59.8266   37.8110 da         1 CLA      0.138300
    116 HBD        75.1426   56.4743   33.8334 dc         1 CLA      0.107700
    117 HAB        77.5535   62.1340   43.1018 da         1 CLA      0.155200
    118 H93        85.8771   55.9978   36.8971 dc         1 CLA      0.069500
    119 H92        86.0579   54.3068   36.9802 dc         1 CLA      0.069500
    120 H91        85.5555   54.8956   35.4348 dc         1 CLA      0.069500
    121 H8         83.4861   55.8564   36.5530 dc         1 CLA      0.029300
    122 H72        82.0399   53.8010   36.7992 dc         1 CLA      0.044400
    123 H71        83.5211   52.8267   36.8045 dc         1 CLA      0.044400
    124 H62        84.2284   53.5191   34.7525 dc         1 CLA      0.015600
    125 H61        82.8130   54.6402   34.5184 dc         1 CLA      0.015600
    126 H52        82.9756   51.6032   34.6941 dc         1 CLA      0.033200
    127 H51        82.7523   52.5248   33.3249 dc         1 CLA      0.033200
    128 H43        79.1916   51.4378   34.5623 dc         1 CLA      0.037000
    129 H42        80.3295   50.4680   33.8008 dc         1 CLA      0.037000
    130 H41        80.5853   50.6517   35.5711 dc         1 CLA      0.037000
    131 H3A        79.5809   58.7954   35.4846 dc         1 CLA      0.041100
    132 H2A        78.3133   56.2806   35.1156 dc         1 CLA      0.083100
    133 H2         80.0501   54.1422   35.2249 da         1 CLA      0.180900
    134 H18        82.8574   59.1904   46.2452 dc         1 CLA     -0.003900
    135 H13        80.4327   55.3252   41.1387 dc         1 CLA      0.019700
    136 H12        78.8222   53.9346   32.9439 dc         1 CLA      0.120400
    137 H11        80.4102   53.9245   32.1964 dc         1 CLA      0.120400
    138 C1         67.8067   61.5056   49.4476 Z1         2 LUT      0.509236
    139 C2         67.6674   62.8193   50.2923 Z2         2 LUT     -0.434695
    140 C3         66.2782   63.5471   50.3559 Z3         2 LUT      0.437453
    141 O3         66.5021   64.9043   50.5824 S1         2 LUT     -0.547129
    142 C4         65.5460   63.2510   49.1559 Z4         2 LUT     -0.468603
    143 C5         66.3318   62.8651   47.9163 Z5         2 LUT      0.279246
    144 C6         67.3081   61.9030   48.0670 Z6         2 LUT     -0.305473
    145 C7         68.2185   61.6055   46.8966 Z7         2 LUT      0.069402
    146 C8         69.2274   62.2566   46.2082 Z8         2 LUT     -0.191631
    147 C9         69.8976   61.7203   45.0196 Z9         2 LUT      0.196698
    148 C10        70.8444   62.5271   44.3668 Y1         2 LUT     -0.208611
    149 C11        71.6024   62.4089   43.1158 Y2         2 LUT      0.030784
    150 C12        72.7935   62.9931   42.8404 Y3         2 LUT     -0.220316
    151 C13        73.6319   62.8565   41.6623 Y4         2 LUT      0.215937
    152 C14        74.8004   63.6498   41.6531 Y5         2 LUT     -0.185793
    153 C15        75.9487   63.5261   40.7414 Y6         2 LUT     -0.057835
    154 C16        66.8823   60.4689   50.0948 Y7         2 LUT     -0.405615
    155 C17        69.2520   61.0656   49.5352 Y7         2 LUT     -0.405615
    156 C18        66.2260   63.8717   46.8630 Y9         2 LUT     -0.369639
    157 C19        69.6330   60.2995   44.5070 W1         2 LUT     -0.333362
    158 C20        72.9902   62.5531   40.2908 W2         2 LUT     -0.323439
    159 C21        86.8756   64.7757   34.3662 Z1         2 LUT      0.406104
    160 C22        87.6606   64.1314   33.1917 Z2         2 LUT     -0.404965
    161 C23        88.0686   65.1185   32.1222 Z3         2 LUT      0.391255
    162 O23        88.9428   64.5119   31.1378 S1         2 LUT     -0.528210
    163 C24        86.9585   66.0915   31.6847 W6         2 LUT     -0.258361
    164 C25        85.8198   66.3133   32.3438 Z5         2 LUT      0.133546
    165 C26        85.6179   65.5138   33.6949 W8         2 LUT     -0.147008
    166 C27        84.7552   66.1691   34.7553 Z7         2 LUT      0.023843
    167 C28        83.9579   65.4383   35.5783 Z8         2 LUT     -0.216987
    168 C29        83.2379   65.8548   36.7347 Z9         2 LUT      0.206524
    169 C30        82.1332   65.2215   37.1951 Y1         2 LUT     -0.215556
    170 C31        81.3668   65.5502   38.3940 Y2         2 LUT      0.025142
    171 C32        80.1770   65.0015   38.6857 Y3         2 LUT     -0.212209
    172 C33        79.3226   65.1583   39.9366 Y4         2 LUT      0.240937
    173 C34        78.1822   64.3869   40.0406 Y5         2 LUT     -0.218862
    174 C35        77.0457   64.3659   40.9240 Y6         2 LUT     -0.023547
    175 C36        87.8635   65.7272   35.1378 Y7         2 LUT     -0.393485
    176 C37        86.5152   63.7299   35.4818 Y7         2 LUT     -0.393485
    177 C38        84.7919   67.2561   31.8057 Y9         2 LUT     -0.387526
    178 C39        83.7178   67.1089   37.3247 W1         2 LUT     -0.322618
    179 C40        79.8286   66.1005   41.0476 W2         2 LUT     -0.358472
    180 H403       78.9773   66.4604   41.6545 R7         2 LUT      0.097720
    181 H402       80.5800   65.6463   41.6632 R7         2 LUT      0.097720
    182 H401       80.3492   67.0734   40.7407 R7         2 LUT      0.097720
    183 H393       84.8208   67.1657   37.3828 R4         2 LUT      0.082505
    184 H392       83.4115   67.9236   36.7150 R4         2 LUT      0.082505
    185 H391       83.3887   67.1712   38.3463 R4         2 LUT      0.082505
    186 H383       83.7869   66.8337   31.8612 R1         2 LUT      0.104030
    187 H382       84.7226   68.1927   32.3348 R1         2 LUT      0.104030
    188 H381       84.8041   67.5175   30.7201 R1         2 LUT      0.104030
    189 H373       87.4099   63.2836   35.8745 T4         2 LUT      0.089537
    190 H372       85.9869   64.0815   36.3840 T4         2 LUT      0.089537
    191 H371       85.9646   62.8981   35.1656 T4         2 LUT      0.089537
    192 H363       88.3737   66.4349   34.4764 T4         2 LUT      0.089537
    193 H362       87.4235   66.2246   35.9684 T4         2 LUT      0.089537
    194 H361       88.7120   65.1876   35.6219 T4         2 LUT      0.089537
    195 H222       88.5075   63.7014   33.7481 U2         2 LUT      0.127376
    196 H221       87.0272   63.3769   32.6956 U2         2 LUT      0.127376
    197 H203       72.1923   63.2911   40.2216 R7         2 LUT      0.087068
    198 H202       73.6754   62.6085   39.4076 R7         2 LUT      0.087068
    199 H201       72.5566   61.5267   40.3798 R7         2 LUT      0.087068
    200 H193       70.5483   59.8191   44.2094 R4         2 LUT      0.089716
    201 H192       69.2384   59.6876   45.3419 R4         2 LUT      0.089716
    202 H191       69.0012   60.1710   43.6961 R4         2 LUT      0.089716
    203 H183       67.0467   64.6444   46.8306 R1         2 LUT      0.094572
    204 H182       66.3861   63.3547   45.8948 R1         2 LUT      0.094572
    205 H181       65.2266   64.2444   46.9136 R1         2 LUT      0.094572
    206 H173       69.6673   61.0325   50.4835 T4         2 LUT      0.093752
    207 H172       69.4160   60.1145   49.0107 T4         2 LUT      0.093752
    208 H171       69.9618   61.7244   49.0177 T4         2 LUT      0.093752
    209 H163       65.8090   60.6344   49.9558 T4         2 LUT      0.093752
    210 H162       67.0082   59.6254   49.4356 T4         2 LUT      0.093752
    211 H161       67.1602   60.3634   51.1366 T4         2 LUT      0.093752
    212 HO3        65.8028   65.3117   51.0876 Q1         2 LUT      0.300121
    213 H8         69.3675   63.2412   46.5333 U7         2 LUT      0.080784
    214 H7         67.9677   60.6106   46.5249 U6         2 LUT      0.042190
    215 H42        64.9411   62.3565   49.4935 U5         2 LUT      0.145166
    216 H41        64.7175   63.9931   48.9841 U5         2 LUT      0.145166
    217 H35        77.0959   65.0403   41.7871 T3         2 LUT      0.077919
    218 H34        77.7854   63.8442   39.1755 T2         2 LUT      0.073626
    219 H32        79.8134   64.2474   37.9705 T1         2 LUT      0.092510
    220 H31        81.7208   66.2581   39.1923 U9         2 LUT      0.070048
    221 H30        81.7448   64.4897   36.5072 U8         2 LUT      0.085442
    222 H3         65.7621   63.0445   51.2230 U3         2 LUT     -0.031596
    223 H28        83.9049   64.4439   35.3946 U7         2 LUT      0.084728
    224 H27        84.7996   67.2206   34.9381 U6         2 LUT      0.087291
    225 H26        84.8851   64.7055   33.3411 Q6         2 LUT      0.075325
    226 H24        87.0964   66.5721   30.7067 Q5         2 LUT      0.094482
    227 H23        88.7829   65.6776   32.7133 U3         2 LUT     -0.024869
    228 H22        68.0079   62.6405   51.2997 U2         2 LUT      0.127376
    229 H21        68.4514   63.4651   50.0216 U2         2 LUT      0.127376
    230 H15        75.8506   62.9315   39.7581 T3         2 LUT      0.093200
    231 H14        75.1008   64.1072   42.5704 T2         2 LUT      0.068865
    232 H12        73.0305   63.7817   43.5953 T1         2 LUT      0.095507
    233 H11        71.3762   61.5993   42.4707 U9         2 LUT      0.068930
    234 H10        71.0164   63.4450   44.8718 U8         2 LUT      0.083911
    235 H1         88.5453   64.0605   30.3892 Q1         2 LUT      0.297311
@<TRIPOS>BOND
    1     6     1 1
    2     7     2 1
    3     8     3 1
    4     9     4 1
    5    11     4 1
    6    12     6 1
    7    13     9 1
    8    16     9 1
    9    25     5 1
   10    25    16 1
   11    26    10 1
   12    26    17 1
   13    27    18 1
   14    28    14 1
   15    28    19 1
   16    29    12 1
   17    30    13 1
   18    31    24 1
   19    32     1 1
   20    32    25 1
   21    33    21 1
   22    33    26 1
   23    34    22 1
   24    34    27 1
   25    35    23 1
   26    35    28 1
   27    36    12 1
   28    36    24 1
   29    37    13 1
   30    37    15 1
   31    38    31 1
   32    39    20 1
   33    39    32 1
   34    40     2 1
   35    40    33 1
   36    41     3 1
   37    41    34 1
   38    42     4 1
   39    42    35 1
   40    43    38 1
   41    44     5 1
   42    44    17 1
   43    44    39 1
   44    45    10 1
   45    45    18 1
   46    45    40 1
   47    46    19 1
   48    46    41 1
   49    47    14 1
   50    47    16 1
   51    47    42 1
   52    48    38 1
   53    49    48 1
   54    50    49 1
   55    51    50 1
   56    52    51 1
   57    53    51 1
   58    54    53 1
   59    55    54 1
   60    56    55 1
   61    57    56 1
   62    58    56 1
   63    59    58 1
   64    60    59 1
   65    61    60 1
   66    62    61 1
   67    63    61 1
   68    64    27 1
   69    64    46 1
   70    65     5 1
   71    65    10 1
   72    65    64 1
   73    65    14 1
   74    66    23 1
   75    67    23 1
   76    68    23 1
   77    69    22 1
   78    70    22 1
   79    71    22 1
   80    72    21 1
   81    73    21 1
   82    74    21 1
   83    75    20 1
   84    76    20 1
   85    77    20 1
   86    78    15 1
   87    79    15 1
   88    80    15 1
   89    81     8 1
   90    82     8 1
   91    83     8 1
   92    84     7 1
   93    85     7 1
   94    86     6 1
   95    87     6 1
   96    88     3 1
   97    89     3 1
   98    90     1 1
   99    91     1 1
  100    92    63 1
  101    93    63 1
  102    94    63 1
  103    95    62 1
  104    96    62 1
  105    97    62 1
  106    98    60 1
  107    99    60 1
  108   100    59 1
  109   101    59 1
  110   102    58 1
  111   103    58 1
  112   104    57 1
  113   105    57 1
  114   106    57 1
  115   107    55 1
  116   108    55 1
  117   109    54 1
  118   110    54 1
  119   111    53 1
  120   112    53 1
  121   113    19 1
  122   114    18 1
  123   115    17 1
  124   116     9 1
  125   117     2 1
  126   118    52 1
  127   119    52 1
  128   120    52 1
  129   121    51 1
  130   122    50 1
  131   123    50 1
  132   124    49 1
  133   125    49 1
  134   126    48 1
  135   127    48 1
  136   128    43 1
  137   129    43 1
  138   130    43 1
  139   131    39 1
  140   132    32 1
  141   133    31 1
  142   134    61 1
  143   135    56 1
  144   136    24 1
  145   137    24 1
  146   139   138 1
  147   140   139 1
  148   141   140 1
  149   142   140 1
  150   143   142 1
  151   144   138 1
  152   144   143 1
  153   145   144 1
  154   146   145 1
  155   147   146 1
  156   148   147 1
  157   149   148 1
  158   150   149 1
  159   151   150 1
  160   152   151 1
  161   153   152 1
  162   154   138 1
  163   155   138 1
  164   156   143 1
  165   157   147 1
  166   158   151 1
  167   160   159 1
  168   161   160 1
  169   162   161 1
  170   163   161 1
  171   164   163 1
  172   165   159 1
  173   165   164 1
  174   166   165 1
  175   167   166 1
  176   168   167 1
  177   169   168 1
  178   170   169 1
  179   171   170 1
  180   172   171 1
  181   173   172 1
  182   174   153 1
  183   174   173 1
  184   175   159 1
  185   176   159 1
  186   177   164 1
  187   178   168 1
  188   179   172 1
  189   180   179 1
  190   181   179 1
  191   182   179 1
  192   183   178 1
  193   184   178 1
  194   185   178 1
  195   186   177 1
  196   187   177 1
  197   188   177 1
  198   189   176 1
  199   190   176 1
  200   191   176 1
  201   192   175 1
  202   193   175 1
  203   194   175 1
  204   195   160 1
  205   196   160 1
  206   197   158 1
  207   198   158 1
  208   199   158 1
  209   200   157 1
  210   201   157 1
  211   202   157 1
  212   203   156 1
  213   204   156 1
  214   205   156 1
  215   206   155 1
  216   207   155 1
  217   208   155 1
  218   209   154 1
  219   210   154 1
  220   211   154 1
  221   212   141 1
  222   213   146 1
  223   214   145 1
  224   215   142 1
  225   216   142 1
  226   217   174 1
  227   218   173 1
  228   219   171 1
  229   220   170 1
  230   221   169 1
  231   222   140 1
  232   223   167 1
  233   224   166 1
  234   225   165 1
  235   226   163 1
  236   227   161 1
  237   228   139 1
  238   229   139 1
  239   230   153 1
  240   231   152 1
  241   232   150 1
  242   233   149 1
  243   234   148 1
  244   235   162 1
  245   65    153 1
  246   65    174 1
@<TRIPOS>SUBSTRUCTURE
      1 CLA               1 ****               0 ****  **** 
      2 LUT             138 ****               0 ****  **** 
