@<TRIPOS>MOLECULE
Cpptraj generated mol2 file.
  235   246     2     0     0
SMALL
USER_CHARGES


@<TRIPOS>ATOM
      1 CAA        79.7913   58.4297   34.9221 a2         1 CLA     -0.055900
      2 CAB        79.8863   62.3211   43.7032 c8         1 CLA     -0.148500
      3 CAC        73.1926   57.9750   43.5802 a2         1 CLA     -0.012600
      4 CAD        75.2179   56.0957   36.0465 ck         1 CLA      0.398800
      5 NA         78.6539   58.7423   38.2444 ns         1 CLA     -0.225500
      6 CBA        81.0388   58.0392   34.1124 a2         1 CLA     -0.135000
      7 CBB        81.0250   62.0628   44.4306 c0         1 CLA     -0.395200
      8 CBC        73.4800   56.4296   43.6107 a3         1 CLA     -0.037700
      9 CBD        76.8231   56.4391   35.7946 a1         1 CLA     -0.053900
     10 NB         78.5841   60.5698   40.7634 nm         1 CLA     -0.295700
     11 OBD        74.5683   55.4310   35.2274 o2         1 CLA     -0.494600
     12 CGA        81.1666   56.4860   33.8376 c4         1 CLA      0.827000
     13 CGD        77.5626   55.1459   35.6043 c4         1 CLA      0.655300
     14 ND         75.7466   58.1099   38.8518 nm         1 CLA     -0.291600
     15 CED        78.5018   53.4046   37.0781 a3         1 CLA      0.005400
     16 CHA        77.2083   57.3207   36.9410 cs         1 CLA     -0.123800
     17 CHB        80.5257   60.0309   39.2457 aa         1 CLA     -0.291900
     18 CHC        77.3070   60.6938   42.8455 aa         1 CLA     -0.090400
     19 CHD        73.9688   58.1623   40.4786 aa         1 CLA     -0.052000
     20 CMA        81.8106   57.3879   37.8993 a3         1 CLA     -0.230700
     21 CMB        82.0554   61.8134   41.2878 a3         1 CLA     -0.180800
     22 CMC        75.1681   59.8943   45.1025 a3         1 CLA     -0.134000
     23 CMD        72.4482   56.6261   38.0467 a3         1 CLA     -0.141100
     24 C1         81.9854   54.3513   34.5208 a2         1 CLA      0.023000
     25 C1A        78.4473   57.9197   37.1812 ac         1 CLA     -0.015100
     26 C1B        79.9142   60.6741   40.3882 cr         1 CLA      0.054700
     27 C1C        76.0846   60.0095   42.6439 cn         1 CLA     -0.005600
     28 C1D        74.4081   57.8249   39.1837 ap         1 CLA     -0.047300
     29 O1A        80.5927   55.9284   32.8865 o2         1 CLA     -0.610800
     30 O1D        78.1787   54.8967   34.5840 o2         1 CLA     -0.558200
     31 C2         82.9194   53.8153   35.5579 c8         1 CLA     -0.325100
     32 C2A        79.7520   57.7691   36.3650 a1         1 CLA      0.098600
     33 C2B        80.5844   61.4911   41.3757 cb         1 CLA      0.088500
     34 C2C        75.1041   59.6391   43.6572 cb         1 CLA      0.053700
     35 C2D        73.8287   57.0814   38.1217 cb         1 CLA      0.058900
     36 O2A        82.0297   55.8288   34.6833 o1         1 CLA     -0.437200
     37 O2D        77.5548   54.4796   36.8280 o1         1 CLA     -0.357600
     38 C3         84.1750   53.2745   35.3253 c5         1 CLA      0.031200
     39 C3A        80.8297   58.4352   37.2946 a1         1 CLA      0.166800
     40 C3B        79.6764   61.6968   42.4268 cb         1 CLA      0.035000
     41 C3C        74.2698   58.8026   42.9177 cb         1 CLA     -0.089900
     42 C3D        74.8473   56.8253   37.2611 cb         1 CLA     -0.035900
     43 C4         84.4545   51.7572   34.8710 a3         1 CLA     -0.053300
     44 C4A        79.9628   59.1504   38.3548 ac         1 CLA      0.001800
     45 C4B        78.4555   61.0107   42.0727 cn         1 CLA     -0.020900
     46 C4C        74.5728   58.8732   41.5332 cr         1 CLA     -0.044400
     47 C4D        76.0426   57.4361   37.7125 c6         1 CLA     -0.046000
     48 C5         85.4342   53.9973   35.7598 a2         1 CLA     -0.070400
     49 C6         85.5183   54.1264   37.3031 a2         1 CLA      0.043900
     50 C7         86.8175   54.8832   37.7839 a2         1 CLA     -0.150000
     51 C8         86.6288   55.7057   39.0826 a1         1 CLA      0.064200
     52 C9         85.9663   57.0393   38.6285 a3         1 CLA     -0.259300
     53 C10        87.9224   55.9353   39.9082 a2         1 CLA     -0.071900
     54 C11        87.6321   56.3377   41.3425 a2         1 CLA      0.014500
     55 C12        88.8219   56.2342   42.1873 a2         1 CLA     -0.112100
     56 C13        88.7405   56.9565   43.5557 a1         1 CLA      0.089200
     57 C14        90.0982   57.1330   44.1981 a3         1 CLA     -0.239100
     58 C15        87.7463   56.3709   44.5974 a2         1 CLA     -0.102200
     59 C16        87.7200   57.1482   45.8945 a2         1 CLA      0.023900
     60 C17        86.4822   56.8358   46.8121 a2         1 CLA     -0.105700
     61 C18        86.0529   57.8952   47.9028 a1         1 CLA      0.206800
     62 C19        84.6572   57.4545   48.4961 a3         1 CLA     -0.280100
     63 C20        87.1716   57.9694   49.0003 a3         1 CLA     -0.280100
     64 NC         75.7537   59.5419   41.4279 nx         1 CLA     -0.309200
     65 MG         77.1845   59.3350   39.7391 mg         1 CLA      0.895000
     66 HMD3       72.0639   56.4132   39.0484 dc         1 CLA      0.064300
     67 HMD2       71.9545   57.4834   37.5536 dc         1 CLA      0.064300
     68 HMD1       72.4774   55.7258   37.4332 dc         1 CLA      0.064300
     69 HMC3       75.4032   60.9081   45.2636 dc         1 CLA      0.052100
     70 HMC2       74.2592   59.6173   45.6093 dc         1 CLA      0.052100
     71 HMC1       75.8218   59.2613   45.6617 dc         1 CLA      0.052100
     72 HMB3       82.4267   62.0221   40.2978 dc         1 CLA      0.063600
     73 HMB2       82.3228   62.6871   41.9230 dc         1 CLA      0.063600
     74 HMB1       82.7529   61.0751   41.7194 dc         1 CLA      0.063600
     75 HMA3       82.3430   56.7862   37.1958 dc         1 CLA      0.058300
     76 HMA2       82.3918   57.9501   38.5878 dc         1 CLA      0.058300
     77 HMA1       81.2079   56.6994   38.4450 dc         1 CLA      0.058300
     78 HED3       78.9538   53.6800   37.9921 dc         1 CLA      0.079300
     79 HED2       78.0385   52.4563   37.1342 dc         1 CLA      0.079300
     80 HED1       79.3479   53.4294   36.3414 dc         1 CLA      0.079300
     81 HBC3       74.4580   56.3600   44.2683 dc         1 CLA      0.016300
     82 HBC2       72.6855   55.9568   44.1274 dc         1 CLA      0.016300
     83 HBC1       73.7748   56.0093   42.6319 dc         1 CLA      0.016300
     84 HBB2       81.1842   62.3667   45.5335 da         1 CLA      0.183000
     85 HBB1       81.8630   61.5743   43.8847 da         1 CLA      0.183000
     86 HBA2       80.9724   58.6241   33.1342 dc         1 CLA      0.029400
     87 HBA1       81.8843   58.3479   34.6862 dc         1 CLA      0.029400
     88 HAC2       72.9393   58.2801   44.6778 dc         1 CLA      0.029300
     89 HAC1       72.2975   58.0814   43.0034 dc         1 CLA      0.029300
     90 HAA2       79.0167   58.1232   34.2197 dc         1 CLA      0.028700
     91 HAA1       79.7385   59.4947   34.9168 dc         1 CLA      0.028700
     92 H203       86.8970   58.5965   49.8450 dc         1 CLA      0.065600
     93 H202       87.3191   56.8952   49.3801 dc         1 CLA      0.065600
     94 H201       88.0387   58.4105   48.4513 dc         1 CLA      0.065600
     95 H193       84.4237   58.0235   49.3850 dc         1 CLA      0.065600
     96 H192       83.8275   57.6067   47.8359 dc         1 CLA      0.065600
     97 H191       84.6041   56.4370   48.5965 dc         1 CLA      0.065600
     98 H172       85.5931   56.6838   46.1481 dc         1 CLA      0.027600
     99 H171       86.5539   55.7888   47.2885 dc         1 CLA      0.027600
    100 H162       88.6672   57.2380   46.4893 dc         1 CLA      0.002900
    101 H161       87.5874   58.2029   45.6144 dc         1 CLA      0.002900
    102 H152       86.7095   56.3270   44.1827 dc         1 CLA      0.029100
    103 H151       88.0731   55.3748   44.7522 dc         1 CLA      0.029100
    104 H143       90.0837   57.9911   44.9743 dc         1 CLA      0.063600
    105 H142       90.4634   56.1408   44.5806 dc         1 CLA      0.063600
    106 H141       90.6852   57.4972   43.3726 dc         1 CLA      0.063600
    107 H122       89.1942   55.2067   42.4534 dc         1 CLA      0.032500
    108 H121       89.6397   56.7881   41.7057 dc         1 CLA      0.032500
    109 H112       87.3143   57.3820   41.3624 dc         1 CLA      0.006600
    110 H111       86.7870   55.6938   41.7219 dc         1 CLA      0.006600
    111 H102       88.3239   54.8869   39.8774 dc         1 CLA      0.024100
    112 H101       88.6222   56.6714   39.4442 dc         1 CLA      0.024100
    113 HHD        73.0878   57.7419   40.8812 da         1 CLA      0.174300
    114 HHC        77.3489   60.9701   43.8978 da         1 CLA      0.136800
    115 HHB        81.6032   60.2765   39.1146 da         1 CLA      0.138300
    116 HBD        76.8819   57.0620   34.9653 dc         1 CLA      0.107700
    117 HAB        78.9786   62.7387   44.1285 da         1 CLA      0.155200
    118 H93        85.3059   56.9946   37.7053 dc         1 CLA      0.069500
    119 H92        85.5244   57.7143   39.3492 dc         1 CLA      0.069500
    120 H91        86.7591   57.6642   38.2097 dc         1 CLA      0.069500
    121 H8         85.8715   55.3533   39.7169 dc         1 CLA      0.029300
    122 H72        87.5895   54.1228   38.0154 dc         1 CLA      0.044400
    123 H71        87.1829   55.5316   37.0451 dc         1 CLA      0.044400
    124 H62        84.6570   54.7671   37.5492 dc         1 CLA      0.015600
    125 H61        85.4462   53.1733   37.8225 dc         1 CLA      0.015600
    126 H52        86.3392   53.4430   35.5601 dc         1 CLA      0.033200
    127 H51        85.5281   54.9524   35.2660 dc         1 CLA      0.033200
    128 H43        84.9773   51.6339   33.9320 dc         1 CLA      0.037000
    129 H42        85.0334   51.2061   35.6576 dc         1 CLA      0.037000
    130 H41        83.4306   51.3353   34.7070 dc         1 CLA      0.037000
    131 H3A        81.2916   59.2564   36.7082 dc         1 CLA      0.041100
    132 H2A        79.9521   56.6865   36.3837 dc         1 CLA      0.083100
    133 H2         82.5269   53.4007   36.5054 da         1 CLA      0.180900
    134 H18        85.8077   58.8768   47.4512 dc         1 CLA     -0.003900
    135 H13        88.4359   58.0016   43.4137 dc         1 CLA      0.019700
    136 H12        81.0250   53.9350   34.8907 dc         1 CLA      0.120400
    137 H11        82.1171   53.9590   33.5398 dc         1 CLA      0.120400
    138 C1         68.6975   61.7452   50.6783 Z1         2 LUT      0.509236
    139 C2         68.6763   63.0407   51.5311 Z2         2 LUT     -0.434695
    140 C3         67.3684   63.8105   51.5485 Z3         2 LUT      0.437453
    141 O3         67.6807   65.1224   52.0947 S1         2 LUT     -0.547129
    142 C4         66.9601   64.0262   50.0990 Z4         2 LUT     -0.468603
    143 C5         67.7854   63.2877   49.0787 Z5         2 LUT      0.279246
    144 C6         68.5765   62.2202   49.2341 Z6         2 LUT     -0.305473
    145 C7         69.5539   61.7611   48.2309 Z7         2 LUT      0.069402
    146 C8         70.5599   62.3820   47.6828 Z8         2 LUT     -0.191631
    147 C9         71.3543   62.0398   46.4817 Z9         2 LUT      0.196698
    148 C10        72.4116   62.8969   46.1496 Y1         2 LUT     -0.208611
    149 C11        73.0354   62.9436   44.8614 Y2         2 LUT      0.030784
    150 C12        74.0702   63.7590   44.5242 Y3         2 LUT     -0.220316
    151 C13        74.7438   63.7499   43.2663 Y4         2 LUT      0.215937
    152 C14        75.9635   64.4629   43.1744 Y5         2 LUT     -0.185793
    153 C15        77.0306   64.3407   42.1805 Y6         2 LUT     -0.057835
    154 C16        67.4231   60.8932   51.0102 Y7         2 LUT     -0.405615
    155 C17        69.8811   60.7915   51.0081 Y7         2 LUT     -0.405615
    156 C18        67.7685   64.1882   47.8681 Y9         2 LUT     -0.369639
    157 C19        70.9339   60.9059   45.6214 W1         2 LUT     -0.333362
    158 C20        74.1415   63.1029   42.0750 W2         2 LUT     -0.323439
    159 C21        88.5303   65.2331   35.8701 Z1         2 LUT      0.406104
    160 C22        89.0879   64.6299   34.5251 Z2         2 LUT     -0.404965
    161 C23        89.3319   65.5647   33.3542 Z3         2 LUT      0.391255
    162 O23        90.0825   64.9771   32.2841 S1         2 LUT     -0.528210
    163 C24        87.9547   66.2285   33.0701 W6         2 LUT     -0.258361
    164 C25        87.0005   66.5321   34.0218 Z5         2 LUT      0.133546
    165 C26        87.0938   65.7580   35.4186 W8         2 LUT     -0.147008
    166 C27        86.3239   66.3746   36.5960 Z7         2 LUT      0.023843
    167 C28        85.2461   65.8907   37.3108 Z8         2 LUT     -0.216987
    168 C29        84.6962   66.3057   38.5926 Z9         2 LUT      0.206524
    169 C30        83.5229   65.7045   38.9805 Y1         2 LUT     -0.215556
    170 C31        82.7155   65.9658   40.1828 Y2         2 LUT      0.025142
    171 C32        81.5590   65.1997   40.3820 Y3         2 LUT     -0.212209
    172 C33        80.5592   65.4397   41.4355 Y4         2 LUT      0.240937
    173 C34        79.2967   64.8878   41.3404 Y5         2 LUT     -0.218862
    174 C35        78.1929   64.9836   42.2512 Y6         2 LUT     -0.023547
    175 C36        89.4341   66.4300   36.3504 Y7         2 LUT     -0.393485
    176 C37        88.5205   64.0859   36.8598 Y7         2 LUT     -0.393485
    177 C38        85.6945   67.2573   33.6382 Y9         2 LUT     -0.387526
    178 C39        85.2315   67.4611   39.4353 W1         2 LUT     -0.322618
    179 C40        80.8298   66.4637   42.5499 W2         2 LUT     -0.358472
    180 H403       80.7892   67.3900   42.0323 R7         2 LUT      0.097720
    181 H402       80.2967   66.4418   43.4815 R7         2 LUT      0.097720
    182 H401       81.8853   66.4970   42.7933 R7         2 LUT      0.097720
    183 H393       86.1673   67.8076   39.0019 R4         2 LUT      0.082505
    184 H392       84.5810   68.3124   39.3457 R4         2 LUT      0.082505
    185 H391       85.3836   67.4053   40.4696 R4         2 LUT      0.082505
    186 H383       84.9160   66.5608   33.6743 R1         2 LUT      0.104030
    187 H382       85.4809   68.0632   34.3097 R1         2 LUT      0.104030
    188 H381       85.8369   67.5986   32.5797 R1         2 LUT      0.104030
    189 H373       89.5438   64.0128   37.2026 T4         2 LUT      0.089537
    190 H372       87.9483   64.2739   37.7420 T4         2 LUT      0.089537
    191 H371       88.3665   63.0660   36.4181 T4         2 LUT      0.089537
    192 H363       89.3779   67.3399   35.7331 T4         2 LUT      0.089537
    193 H362       89.0119   66.7443   37.3047 T4         2 LUT      0.089537
    194 H361       90.4965   66.1878   36.6091 T4         2 LUT      0.089537
    195 H222       90.0368   64.1590   34.8117 U2         2 LUT      0.127376
    196 H221       88.4977   63.8280   34.1450 U2         2 LUT      0.127376
    197 H203       73.7179   62.1560   42.2855 R7         2 LUT      0.087068
    198 H202       73.3448   63.6308   41.5622 R7         2 LUT      0.087068
    199 H201       74.8991   62.9287   41.2711 R7         2 LUT      0.087068
    200 H193       71.6667   60.6115   44.7762 R4         2 LUT      0.089716
    201 H192       70.8462   59.9090   46.0690 R4         2 LUT      0.089716
    202 H191       69.9644   60.9902   45.0576 R4         2 LUT      0.089716
    203 H183       68.3782   65.0280   48.1028 R1         2 LUT      0.094572
    204 H182       68.2004   63.6267   47.0668 R1         2 LUT      0.094572
    205 H181       66.8098   64.5968   47.5572 R1         2 LUT      0.094572
    206 H173       70.7952   61.3616   51.0006 T4         2 LUT      0.093752
    207 H172       69.7890   60.3590   51.9677 T4         2 LUT      0.093752
    208 H171       69.9725   60.0177   50.1576 T4         2 LUT      0.093752
    209 H163       67.4661   59.7884   50.7430 T4         2 LUT      0.093752
    210 H162       67.4519   60.7887   52.1542 T4         2 LUT      0.093752
    211 H161       66.5296   61.4174   50.6796 T4         2 LUT      0.093752
    212 HO3        66.9268   65.4807   52.5457 Q1         2 LUT      0.300121
    213 H8         70.7608   63.3954   48.1170 U7         2 LUT      0.080784
    214 H7         69.3059   60.7876   47.8530 U6         2 LUT      0.042190
    215 H42        65.8940   63.8642   50.0635 U5         2 LUT      0.145166
    216 H41        67.0008   65.1266   49.8228 U5         2 LUT      0.145166
    217 H35        77.9956   65.6870   43.0684 T3         2 LUT      0.077919
    218 H34        79.1788   64.1922   40.5270 T2         2 LUT      0.073626
    219 H32        81.3764   64.4132   39.5952 T1         2 LUT      0.092510
    220 H31        82.8897   66.7439   40.9480 U9         2 LUT      0.070048
    221 H30        83.1702   64.8880   38.4635 U8         2 LUT      0.085442
    222 H3         66.6312   63.2501   52.1454 U3         2 LUT     -0.031596
    223 H28        84.7161   65.1257   36.8046 U7         2 LUT      0.084728
    224 H27        86.9054   67.1150   37.1605 U6         2 LUT      0.087291
    225 H26        86.5544   64.8152   35.2692 Q6         2 LUT      0.075325
    226 H24        87.7655   66.5957   32.0649 Q5         2 LUT      0.094482
    227 H23        90.0063   66.3447   33.6336 U3         2 LUT     -0.024869
    228 H22        68.8607   63.0038   52.6309 U2         2 LUT      0.127376
    229 H21        69.5367   63.6248   51.1234 U2         2 LUT      0.127376
    230 H15        76.9973   63.6808   41.3220 T3         2 LUT      0.093200
    231 H14        76.2878   65.0266   44.1077 T2         2 LUT      0.068865
    232 H12        74.4538   64.4064   45.3007 T1         2 LUT      0.095507
    233 H11        72.6112   62.3677   44.0524 U9         2 LUT      0.068930
    234 H10        72.7572   63.5680   46.9632 U8         2 LUT      0.083911
    235 H1         89.5551   64.5900   31.5454 Q1         2 LUT      0.297311
@<TRIPOS>BOND
    1     6     1 1
    2     7     2 1
    3     8     3 1
    4     9     4 1
    5    11     4 1
    6    12     6 1
    7    13     9 1
    8    16     9 1
    9    25     5 1
   10    25    16 1
   11    26    10 1
   12    26    17 1
   13    27    18 1
   14    28    14 1
   15    28    19 1
   16    29    12 1
   17    30    13 1
   18    31    24 1
   19    32     1 1
   20    32    25 1
   21    33    21 1
   22    33    26 1
   23    34    22 1
   24    34    27 1
   25    35    23 1
   26    35    28 1
   27    36    12 1
   28    36    24 1
   29    37    13 1
   30    37    15 1
   31    38    31 1
   32    39    20 1
   33    39    32 1
   34    40     2 1
   35    40    33 1
   36    41     3 1
   37    41    34 1
   38    42     4 1
   39    42    35 1
   40    43    38 1
   41    44     5 1
   42    44    17 1
   43    44    39 1
   44    45    10 1
   45    45    18 1
   46    45    40 1
   47    46    19 1
   48    46    41 1
   49    47    14 1
   50    47    16 1
   51    47    42 1
   52    48    38 1
   53    49    48 1
   54    50    49 1
   55    51    50 1
   56    52    51 1
   57    53    51 1
   58    54    53 1
   59    55    54 1
   60    56    55 1
   61    57    56 1
   62    58    56 1
   63    59    58 1
   64    60    59 1
   65    61    60 1
   66    62    61 1
   67    63    61 1
   68    64    27 1
   69    64    46 1
   70    65     5 1
   71    65    10 1
   72    65    64 1
   73    65    14 1
   74    66    23 1
   75    67    23 1
   76    68    23 1
   77    69    22 1
   78    70    22 1
   79    71    22 1
   80    72    21 1
   81    73    21 1
   82    74    21 1
   83    75    20 1
   84    76    20 1
   85    77    20 1
   86    78    15 1
   87    79    15 1
   88    80    15 1
   89    81     8 1
   90    82     8 1
   91    83     8 1
   92    84     7 1
   93    85     7 1
   94    86     6 1
   95    87     6 1
   96    88     3 1
   97    89     3 1
   98    90     1 1
   99    91     1 1
  100    92    63 1
  101    93    63 1
  102    94    63 1
  103    95    62 1
  104    96    62 1
  105    97    62 1
  106    98    60 1
  107    99    60 1
  108   100    59 1
  109   101    59 1
  110   102    58 1
  111   103    58 1
  112   104    57 1
  113   105    57 1
  114   106    57 1
  115   107    55 1
  116   108    55 1
  117   109    54 1
  118   110    54 1
  119   111    53 1
  120   112    53 1
  121   113    19 1
  122   114    18 1
  123   115    17 1
  124   116     9 1
  125   117     2 1
  126   118    52 1
  127   119    52 1
  128   120    52 1
  129   121    51 1
  130   122    50 1
  131   123    50 1
  132   124    49 1
  133   125    49 1
  134   126    48 1
  135   127    48 1
  136   128    43 1
  137   129    43 1
  138   130    43 1
  139   131    39 1
  140   132    32 1
  141   133    31 1
  142   134    61 1
  143   135    56 1
  144   136    24 1
  145   137    24 1
  146   139   138 1
  147   140   139 1
  148   141   140 1
  149   142   140 1
  150   143   142 1
  151   144   138 1
  152   144   143 1
  153   145   144 1
  154   146   145 1
  155   147   146 1
  156   148   147 1
  157   149   148 1
  158   150   149 1
  159   151   150 1
  160   152   151 1
  161   153   152 1
  162   154   138 1
  163   155   138 1
  164   156   143 1
  165   157   147 1
  166   158   151 1
  167   160   159 1
  168   161   160 1
  169   162   161 1
  170   163   161 1
  171   164   163 1
  172   165   159 1
  173   165   164 1
  174   166   165 1
  175   167   166 1
  176   168   167 1
  177   169   168 1
  178   170   169 1
  179   171   170 1
  180   172   171 1
  181   173   172 1
  182   174   153 1
  183   174   173 1
  184   175   159 1
  185   176   159 1
  186   177   164 1
  187   178   168 1
  188   179   172 1
  189   180   179 1
  190   181   179 1
  191   182   179 1
  192   183   178 1
  193   184   178 1
  194   185   178 1
  195   186   177 1
  196   187   177 1
  197   188   177 1
  198   189   176 1
  199   190   176 1
  200   191   176 1
  201   192   175 1
  202   193   175 1
  203   194   175 1
  204   195   160 1
  205   196   160 1
  206   197   158 1
  207   198   158 1
  208   199   158 1
  209   200   157 1
  210   201   157 1
  211   202   157 1
  212   203   156 1
  213   204   156 1
  214   205   156 1
  215   206   155 1
  216   207   155 1
  217   208   155 1
  218   209   154 1
  219   210   154 1
  220   211   154 1
  221   212   141 1
  222   213   146 1
  223   214   145 1
  224   215   142 1
  225   216   142 1
  226   217   174 1
  227   218   173 1
  228   219   171 1
  229   220   170 1
  230   221   169 1
  231   222   140 1
  232   223   167 1
  233   224   166 1
  234   225   165 1
  235   226   163 1
  236   227   161 1
  237   228   139 1
  238   229   139 1
  239   230   153 1
  240   231   152 1
  241   232   150 1
  242   233   149 1
  243   234   148 1
  244   235   162 1
  245   65    153 1
  246   65    174 1
@<TRIPOS>SUBSTRUCTURE
      1 CLA               1 ****               0 ****  **** 
      2 LUT             138 ****               0 ****  **** 
