@<TRIPOS>MOLECULE
Cpptraj generated mol2 file.
  235   246     2     0     0
SMALL
USER_CHARGES


@<TRIPOS>ATOM
      1 CAA        77.0407   57.8078   35.0839 a2         1 CLA     -0.055900
      2 CAB        77.3405   61.6804   44.0717 c8         1 CLA     -0.148500
      3 CAC        70.3183   57.6228   43.9516 a2         1 CLA     -0.012600
      4 CAD        73.3223   54.7711   36.7880 ck         1 CLA      0.398800
      5 NA         76.1198   58.3636   38.5500 ns         1 CLA     -0.225500
      6 CBA        78.2113   57.6350   34.1871 a2         1 CLA     -0.135000
      7 CBB        76.9643   61.0049   45.1681 c0         1 CLA     -0.395200
      8 CBC        70.6067   56.1136   44.2696 a3         1 CLA     -0.037700
      9 CBD        74.6074   55.5769   36.2496 a1         1 CLA     -0.053900
     10 NB         75.8984   60.0711   41.0030 nm         1 CLA     -0.295700
     11 OBD        72.9112   53.8420   36.1033 o2         1 CLA     -0.494600
     12 CGA        78.6690   56.1792   33.9576 c4         1 CLA      0.827000
     13 CGD        75.7307   54.5283   36.0644 c4         1 CLA      0.655300
     14 ND         73.5144   57.1991   39.3428 nm         1 CLA     -0.291600
     15 CED        76.9643   52.6868   37.0143 a3         1 CLA      0.005400
     16 CHA        74.8561   56.5894   37.3171 cs         1 CLA     -0.123800
     17 CHB        77.8258   60.0116   39.3590 aa         1 CLA     -0.291900
     18 CHC        74.6591   60.3077   43.2048 aa         1 CLA     -0.090400
     19 CHD        71.8501   57.0399   41.0578 aa         1 CLA     -0.052000
     20 CMA        79.5855   57.9475   37.7633 a3         1 CLA     -0.230700
     21 CMB        79.1241   61.7605   41.3759 a3         1 CLA     -0.180800
     22 CMC        72.4509   59.7308   45.2430 a3         1 CLA     -0.134000
     23 CMD        70.8831   54.4743   39.1984 a3         1 CLA     -0.141100
     24 C1         80.0168   54.4437   35.0854 a2         1 CLA      0.023000
     25 C1A        75.9587   57.4809   37.4916 ac         1 CLA     -0.015100
     26 C1B        77.1700   60.4571   40.5531 cr         1 CLA      0.054700
     27 C1C        73.5497   59.5268   42.8955 cn         1 CLA     -0.005600
     28 C1D        72.4071   56.6010   39.8257 ap         1 CLA     -0.047300
     29 O1A        78.3903   55.4840   32.9693 o2         1 CLA     -0.610800
     30 O1D        76.4222   54.4268   35.0649 o2         1 CLA     -0.558200
     31 C2         80.5339   54.1789   36.4746 c8         1 CLA     -0.325100
     32 C2A        77.2335   57.5043   36.6244 a1         1 CLA      0.098600
     33 C2B        77.7573   61.3181   41.5410 cb         1 CLA      0.088500
     34 C2C        72.4244   59.2216   43.8593 cb         1 CLA      0.053700
     35 C2D        71.9973   55.4450   39.0067 cb         1 CLA      0.058900
     36 O2A        79.4174   55.8171   35.0095 o1         1 CLA     -0.437200
     37 O2D        75.9721   53.7221   37.1776 o1         1 CLA     -0.357600
     38 C3         81.2295   53.2069   36.9344 c5         1 CLA      0.031200
     39 C3A        78.1592   58.5451   37.3121 a1         1 CLA      0.166800
     40 C3B        76.9449   61.2936   42.7065 cb         1 CLA      0.035000
     41 C3C        71.5602   58.2694   43.2541 cb         1 CLA     -0.089900
     42 C3D        72.9230   55.3909   37.9947 cb         1 CLA     -0.035900
     43 C4         80.6646   51.8451   37.3843 a3         1 CLA     -0.053300
     44 C4A        77.3486   58.9871   38.5151 ac         1 CLA      0.001800
     45 C4B        75.7060   60.5326   42.3343 cn         1 CLA     -0.020900
     46 C4C        72.2482   57.9739   41.9883 cr         1 CLA     -0.044400
     47 C4D        73.8292   56.4651   38.2857 c6         1 CLA     -0.046000
     48 C5         82.7204   53.1956   36.5773 a2         1 CLA     -0.070400
     49 C6         83.4870   54.4979   36.7865 a2         1 CLA      0.043900
     50 C7         83.3903   55.2493   38.1612 a2         1 CLA     -0.150000
     51 C8         83.7142   56.7396   38.0884 a1         1 CLA      0.064200
     52 C9         85.1175   57.0021   37.4298 a3         1 CLA     -0.259300
     53 C10        83.7682   57.3895   39.4370 a2         1 CLA     -0.071900
     54 C11        82.5456   57.3943   40.3755 a2         1 CLA      0.014500
     55 C12        82.7573   58.2918   41.5568 a2         1 CLA     -0.112100
     56 C13        84.0907   58.0243   42.4014 a1         1 CLA      0.089200
     57 C14        84.0410   56.6162   42.9301 a3         1 CLA     -0.239100
     58 C15        84.1923   58.9755   43.6948 a2         1 CLA     -0.102200
     59 C16        82.8841   59.4218   44.3763 a2         1 CLA      0.023900
     60 C17        83.1725   60.3219   45.5436 a2         1 CLA     -0.105700
     61 C18        81.9398   60.4893   46.5277 a1         1 CLA      0.206800
     62 C19        82.3382   61.1367   47.8611 a3         1 CLA     -0.280100
     63 C20        80.7012   61.2041   45.9056 a3         1 CLA     -0.280100
     64 NC         73.3535   58.8113   41.7743 nx         1 CLA     -0.309200
     65 MG         74.6471   58.7716   40.0179 mg         1 CLA      0.895000
     66 HMD3       70.2657   54.5191   38.2792 dc         1 CLA      0.064300
     67 HMD2       71.1748   53.4521   39.3805 dc         1 CLA      0.064300
     68 HMD1       70.2179   54.8086   39.9506 dc         1 CLA      0.064300
     69 HMC3       72.7489   60.7766   45.4178 dc         1 CLA      0.052100
     70 HMC2       71.4260   59.6981   45.6003 dc         1 CLA      0.052100
     71 HMC1       73.1190   58.9775   45.7725 dc         1 CLA      0.052100
     72 HMB3       79.2833   62.6334   41.9704 dc         1 CLA      0.063600
     73 HMB2       79.8150   61.0276   41.7631 dc         1 CLA      0.063600
     74 HMB1       79.2065   61.9553   40.2836 dc         1 CLA      0.063600
     75 HMA3       80.1436   57.4899   36.9848 dc         1 CLA      0.058300
     76 HMA2       80.2957   58.7119   38.1387 dc         1 CLA      0.058300
     77 HMA1       79.4189   57.1505   38.4800 dc         1 CLA      0.058300
     78 HED3       77.1999   52.2347   37.9601 dc         1 CLA      0.079300
     79 HED2       76.6167   51.9466   36.2813 dc         1 CLA      0.079300
     80 HED1       77.9756   53.0197   36.7442 dc         1 CLA      0.079300
     81 HBC3       69.6918   55.5768   44.5458 dc         1 CLA      0.016300
     82 HBC2       71.0585   55.5368   43.5316 dc         1 CLA      0.016300
     83 HBC1       71.3191   56.1610   45.1266 dc         1 CLA      0.016300
     84 HBB2       77.1323   61.4899   46.1678 da         1 CLA      0.183000
     85 HBB1       76.3525   60.1086   45.1668 da         1 CLA      0.183000
     86 HBA2       77.9017   57.9968   33.2478 dc         1 CLA      0.029400
     87 HBA1       79.0875   58.1553   34.6674 dc         1 CLA      0.029400
     88 HAC2       69.8951   58.2489   44.7276 dc         1 CLA      0.029300
     89 HAC1       69.5218   57.5522   43.2655 dc         1 CLA      0.029300
     90 HAA2       76.2450   57.1828   34.8030 dc         1 CLA      0.028700
     91 HAA1       76.6742   58.7971   35.0428 dc         1 CLA      0.028700
     92 H203       80.0833   60.5156   45.2624 dc         1 CLA      0.065600
     93 H202       80.1357   61.5654   46.7961 dc         1 CLA      0.065600
     94 H201       80.8534   62.1566   45.3940 dc         1 CLA      0.065600
     95 H193       82.8818   62.1037   47.5995 dc         1 CLA      0.065600
     96 H192       81.5445   61.5172   48.5391 dc         1 CLA      0.065600
     97 H191       82.9721   60.5282   48.5208 dc         1 CLA      0.065600
     98 H172       83.9876   59.8514   46.0329 dc         1 CLA      0.027600
     99 H171       83.3643   61.3443   45.2095 dc         1 CLA      0.027600
    100 H162       82.1853   59.8032   43.6288 dc         1 CLA      0.002900
    101 H161       82.4584   58.5042   44.7710 dc         1 CLA      0.002900
    102 H152       84.8246   58.4569   44.4817 dc         1 CLA      0.029100
    103 H151       84.7063   59.9075   43.4393 dc         1 CLA      0.029100
    104 H143       84.6845   56.4432   43.7233 dc         1 CLA      0.063600
    105 H142       83.0553   56.3647   43.2995 dc         1 CLA      0.063600
    106 H141       84.3322   55.9575   42.1320 dc         1 CLA      0.063600
    107 H122       82.9227   59.2956   41.2289 dc         1 CLA      0.032500
    108 H121       81.8852   58.1996   42.2389 dc         1 CLA      0.032500
    109 H112       81.6833   57.8696   39.8508 dc         1 CLA      0.006600
    110 H111       82.1953   56.4264   40.6606 dc         1 CLA      0.006600
    111 H102       84.5821   56.9790   39.9184 dc         1 CLA      0.024100
    112 H101       84.0923   58.4448   39.3203 dc         1 CLA      0.024100
    113 HHD        70.9191   56.5104   41.3866 da         1 CLA      0.174300
    114 HHC        74.6743   61.0008   44.0581 da         1 CLA      0.136800
    115 HHB        78.8992   60.2775   39.1762 da         1 CLA      0.138300
    116 HBD        74.4207   55.9875   35.2519 dc         1 CLA      0.107700
    117 HAB        78.0334   62.5835   44.1530 da         1 CLA      0.155200
    118 H93        85.9436   56.5981   38.0718 dc         1 CLA      0.069500
    119 H92        85.0564   56.6168   36.3933 dc         1 CLA      0.069500
    120 H91        85.3203   58.1026   37.3812 dc         1 CLA      0.069500
    121 H8         83.0022   57.2190   37.4264 dc         1 CLA      0.029300
    122 H72        82.3573   55.1990   38.4329 dc         1 CLA      0.044400
    123 H71        84.0273   54.8265   38.9312 dc         1 CLA      0.044400
    124 H62        84.5398   54.3202   36.4839 dc         1 CLA      0.015600
    125 H61        83.0081   55.1554   36.0281 dc         1 CLA      0.015600
    126 H52        83.2381   52.4228   37.1861 dc         1 CLA      0.033200
    127 H51        82.8134   52.8851   35.5588 dc         1 CLA      0.033200
    128 H43        79.6370   51.7196   37.0268 dc         1 CLA      0.037000
    129 H42        81.2891   50.9274   37.0541 dc         1 CLA      0.037000
    130 H41        80.7522   51.9033   38.4841 dc         1 CLA      0.037000
    131 H3A        78.5119   59.3252   36.6220 dc         1 CLA      0.041100
    132 H2A        77.5723   56.4330   36.6512 dc         1 CLA      0.083100
    133 H2         80.3859   54.9577   37.2697 da         1 CLA      0.180900
    134 H18        81.4240   59.5086   46.7332 dc         1 CLA     -0.003900
    135 H13        84.9449   58.1283   41.8471 dc         1 CLA      0.019700
    136 H12        79.2971   53.6486   34.9212 dc         1 CLA      0.120400
    137 H11        80.8141   54.2315   34.3996 dc         1 CLA      0.120400
    138 C1         68.0500   61.3985   51.3498 Z1         2 LUT      0.509236
    139 C2         66.6894   61.2203   52.0956 Z2         2 LUT     -0.434695
    140 C3         65.7405   62.4287   52.4266 Z3         2 LUT      0.437453
    141 O3         66.1406   62.8874   53.7939 S1         2 LUT     -0.547129
    142 C4         65.9854   63.6247   51.4738 Z4         2 LUT     -0.468603
    143 C5         66.6066   63.2134   50.1296 Z5         2 LUT      0.279246
    144 C6         67.5209   62.1865   50.0670 Z6         2 LUT     -0.305473
    145 C7         67.9190   61.6376   48.7514 Z7         2 LUT      0.069402
    146 C8         68.9044   62.1899   48.0170 Z8         2 LUT     -0.191631
    147 C9         69.2504   61.8428   46.6457 Z9         2 LUT      0.196698
    148 C10        70.1811   62.6375   46.0117 Y1         2 LUT     -0.208611
    149 C11        70.7403   62.6268   44.6810 Y2         2 LUT      0.030784
    150 C12        71.8950   63.2280   44.3067 Y3         2 LUT     -0.220316
    151 C13        72.6405   63.2261   43.1432 Y4         2 LUT      0.215937
    152 C14        73.8215   63.9001   43.0816 Y5         2 LUT     -0.185793
    153 C15        74.6555   63.9693   41.9291 Y6         2 LUT     -0.057835
    154 C16        68.8393   60.0676   51.2283 Y7         2 LUT     -0.405615
    155 C17        68.8343   62.3608   52.3339 Y7         2 LUT     -0.405615
    156 C18        66.0470   63.9832   48.9261 Y9         2 LUT     -0.369639
    157 C19        68.4342   60.7325   45.9692 W1         2 LUT     -0.333362
    158 C20        72.0957   62.3562   41.9618 W2         2 LUT     -0.323439
    159 C21        86.2549   64.4779   35.3665 Z1         2 LUT      0.406104
    160 C22        86.9599   63.7533   34.1341 Z2         2 LUT     -0.404965
    161 C23        86.8942   64.5905   32.8662 Z3         2 LUT      0.391255
    162 O23        87.2619   63.6705   31.8335 S1         2 LUT     -0.528210
    163 C24        85.6174   65.5343   32.7553 W6         2 LUT     -0.258361
    164 C25        84.6937   65.6701   33.6397 Z5         2 LUT      0.133546
    165 C26        84.7564   64.9277   34.9385 W8         2 LUT     -0.147008
    166 C27        83.9801   65.5661   36.0821 Z7         2 LUT      0.023843
    167 C28        82.8298   65.2205   36.7521 Z8         2 LUT     -0.216987
    168 C29        82.3997   65.7275   38.0832 Z9         2 LUT      0.206524
    169 C30        81.1508   65.2771   38.5292 Y1         2 LUT     -0.215556
    170 C31        80.4447   65.4541   39.7716 Y2         2 LUT      0.025142
    171 C32        79.1188   65.0882   39.9780 Y3         2 LUT     -0.212209
    172 C33        78.2807   65.0870   41.1850 Y4         2 LUT      0.240937
    173 C34        76.9971   64.5724   41.0705 Y5         2 LUT     -0.218862
    174 C35        75.9562   64.4404   42.0394 Y6         2 LUT     -0.023547
    175 C36        87.1932   65.6508   35.8033 Y7         2 LUT     -0.393485
    176 C37        86.1886   63.4477   36.4980 Y7         2 LUT     -0.393485
    177 C38        83.3807   66.4861   33.3202 Y9         2 LUT     -0.387526
    178 C39        83.3832   66.4047   39.0252 W1         2 LUT     -0.322618
    179 C40        78.9322   65.8210   42.3057 W2         2 LUT     -0.358472
    180 H403       79.7722   65.3244   42.7866 R7         2 LUT      0.097720
    181 H402       79.2909   66.8107   42.0465 R7         2 LUT      0.097720
    182 H401       78.2320   65.9710   43.1175 R7         2 LUT      0.097720
    183 H393       84.3128   65.8790   39.2657 R4         2 LUT      0.082505
    184 H392       83.6440   67.3868   38.6731 R4         2 LUT      0.082505
    185 H391       82.9866   66.5371   40.0553 R4         2 LUT      0.082505
    186 H383       82.5754   65.8363   33.6177 R1         2 LUT      0.104030
    187 H382       83.3708   67.4481   33.9443 R1         2 LUT      0.104030
    188 H381       83.3441   66.7059   32.2089 R1         2 LUT      0.104030
    189 H373       87.1037   63.4336   37.0920 T4         2 LUT      0.089537
    190 H372       85.4470   63.6051   37.2602 T4         2 LUT      0.089537
    191 H371       85.9911   62.4071   36.0992 T4         2 LUT      0.089537
    192 H363       87.3864   66.3572   34.9521 T4         2 LUT      0.089537
    193 H362       86.7943   66.1854   36.5810 T4         2 LUT      0.089537
    194 H361       88.1074   65.1437   36.1837 T4         2 LUT      0.089537
    195 H222       87.9561   63.3997   34.2776 U2         2 LUT      0.127376
    196 H221       86.3834   62.8640   33.8557 U2         2 LUT      0.127376
    197 H203       71.4085   62.9828   41.3055 R7         2 LUT      0.087068
    198 H202       72.9064   61.8392   41.4587 R7         2 LUT      0.087068
    199 H201       71.4175   61.5329   42.2666 R7         2 LUT      0.087068
    200 H193       68.3671   59.8432   46.5622 R4         2 LUT      0.089716
    201 H192       67.4012   61.0892   45.9270 R4         2 LUT      0.089716
    202 H191       68.7818   60.3745   45.0605 R4         2 LUT      0.089716
    203 H183       64.9844   63.7158   48.8453 R1         2 LUT      0.094572
    204 H182       66.1580   65.0170   49.0964 R1         2 LUT      0.094572
    205 H181       66.5142   63.6994   48.0052 R1         2 LUT      0.094572
    206 H173       69.1318   61.7692   53.2551 T4         2 LUT      0.093752
    207 H172       69.7642   62.7391   51.8742 T4         2 LUT      0.093752
    208 H171       68.2220   63.1882   52.7115 T4         2 LUT      0.093752
    209 H163       69.0118   59.7439   52.2610 T4         2 LUT      0.093752
    210 H162       68.3457   59.3017   50.6339 T4         2 LUT      0.093752
    211 H161       69.7649   60.2730   50.6951 T4         2 LUT      0.093752
    212 HO3        65.7329   62.3550   54.5101 Q1         2 LUT      0.300121
    213 H8         69.4879   62.9699   48.4650 U7         2 LUT      0.080784
    214 H7         67.2025   60.9250   48.3554 U6         2 LUT      0.042190
    215 H42        64.9579   64.0915   51.3531 U5         2 LUT      0.145166
    216 H41        66.4683   64.4385   52.0135 U5         2 LUT      0.145166
    217 H35        76.3327   64.7626   42.9839 T3         2 LUT      0.077919
    218 H34        76.7590   64.1203   40.0867 T2         2 LUT      0.073626
    219 H32        78.6212   64.4766   39.2765 T1         2 LUT      0.092510
    220 H31        80.8812   65.8696   40.6115 U9         2 LUT      0.070048
    221 H30        80.5150   64.8358   37.7900 U8         2 LUT      0.085442
    222 H3         64.7330   62.1263   52.5639 U3         2 LUT     -0.031596
    223 H28        82.0626   64.6711   36.2464 U7         2 LUT      0.084728
    224 H27        84.5506   66.3514   36.5031 U6         2 LUT      0.087291
    225 H26        84.0963   64.1597   34.8032 Q6         2 LUT      0.075325
    226 H24        85.5441   66.0639   31.7982 Q5         2 LUT      0.094482
    227 H23        87.7935   65.2178   32.9832 U3         2 LUT     -0.024869
    228 H22        65.9772   60.5301   51.5537 U2         2 LUT      0.127376
    229 H21        66.8811   60.5821   53.0164 U2         2 LUT      0.127376
    230 H15        74.3161   63.5740   40.9995 T3         2 LUT      0.093200
    231 H14        74.0327   64.5645   43.9176 T2         2 LUT      0.068865
    232 H12        72.3491   63.7432   45.1977 T1         2 LUT      0.095507
    233 H11        70.1641   62.0597   43.9391 U9         2 LUT      0.068930
    234 H10        70.7916   63.2519   46.6297 U8         2 LUT      0.083911
    235 H1         86.9451   64.0559   31.0033 Q1         2 LUT      0.297311
@<TRIPOS>BOND
    1     6     1 1
    2     7     2 1
    3     8     3 1
    4     9     4 1
    5    11     4 1
    6    12     6 1
    7    13     9 1
    8    16     9 1
    9    25     5 1
   10    25    16 1
   11    26    10 1
   12    26    17 1
   13    27    18 1
   14    28    14 1
   15    28    19 1
   16    29    12 1
   17    30    13 1
   18    31    24 1
   19    32     1 1
   20    32    25 1
   21    33    21 1
   22    33    26 1
   23    34    22 1
   24    34    27 1
   25    35    23 1
   26    35    28 1
   27    36    12 1
   28    36    24 1
   29    37    13 1
   30    37    15 1
   31    38    31 1
   32    39    20 1
   33    39    32 1
   34    40     2 1
   35    40    33 1
   36    41     3 1
   37    41    34 1
   38    42     4 1
   39    42    35 1
   40    43    38 1
   41    44     5 1
   42    44    17 1
   43    44    39 1
   44    45    10 1
   45    45    18 1
   46    45    40 1
   47    46    19 1
   48    46    41 1
   49    47    14 1
   50    47    16 1
   51    47    42 1
   52    48    38 1
   53    49    48 1
   54    50    49 1
   55    51    50 1
   56    52    51 1
   57    53    51 1
   58    54    53 1
   59    55    54 1
   60    56    55 1
   61    57    56 1
   62    58    56 1
   63    59    58 1
   64    60    59 1
   65    61    60 1
   66    62    61 1
   67    63    61 1
   68    64    27 1
   69    64    46 1
   70    65     5 1
   71    65    10 1
   72    65    64 1
   73    65    14 1
   74    66    23 1
   75    67    23 1
   76    68    23 1
   77    69    22 1
   78    70    22 1
   79    71    22 1
   80    72    21 1
   81    73    21 1
   82    74    21 1
   83    75    20 1
   84    76    20 1
   85    77    20 1
   86    78    15 1
   87    79    15 1
   88    80    15 1
   89    81     8 1
   90    82     8 1
   91    83     8 1
   92    84     7 1
   93    85     7 1
   94    86     6 1
   95    87     6 1
   96    88     3 1
   97    89     3 1
   98    90     1 1
   99    91     1 1
  100    92    63 1
  101    93    63 1
  102    94    63 1
  103    95    62 1
  104    96    62 1
  105    97    62 1
  106    98    60 1
  107    99    60 1
  108   100    59 1
  109   101    59 1
  110   102    58 1
  111   103    58 1
  112   104    57 1
  113   105    57 1
  114   106    57 1
  115   107    55 1
  116   108    55 1
  117   109    54 1
  118   110    54 1
  119   111    53 1
  120   112    53 1
  121   113    19 1
  122   114    18 1
  123   115    17 1
  124   116     9 1
  125   117     2 1
  126   118    52 1
  127   119    52 1
  128   120    52 1
  129   121    51 1
  130   122    50 1
  131   123    50 1
  132   124    49 1
  133   125    49 1
  134   126    48 1
  135   127    48 1
  136   128    43 1
  137   129    43 1
  138   130    43 1
  139   131    39 1
  140   132    32 1
  141   133    31 1
  142   134    61 1
  143   135    56 1
  144   136    24 1
  145   137    24 1
  146   139   138 1
  147   140   139 1
  148   141   140 1
  149   142   140 1
  150   143   142 1
  151   144   138 1
  152   144   143 1
  153   145   144 1
  154   146   145 1
  155   147   146 1
  156   148   147 1
  157   149   148 1
  158   150   149 1
  159   151   150 1
  160   152   151 1
  161   153   152 1
  162   154   138 1
  163   155   138 1
  164   156   143 1
  165   157   147 1
  166   158   151 1
  167   160   159 1
  168   161   160 1
  169   162   161 1
  170   163   161 1
  171   164   163 1
  172   165   159 1
  173   165   164 1
  174   166   165 1
  175   167   166 1
  176   168   167 1
  177   169   168 1
  178   170   169 1
  179   171   170 1
  180   172   171 1
  181   173   172 1
  182   174   153 1
  183   174   173 1
  184   175   159 1
  185   176   159 1
  186   177   164 1
  187   178   168 1
  188   179   172 1
  189   180   179 1
  190   181   179 1
  191   182   179 1
  192   183   178 1
  193   184   178 1
  194   185   178 1
  195   186   177 1
  196   187   177 1
  197   188   177 1
  198   189   176 1
  199   190   176 1
  200   191   176 1
  201   192   175 1
  202   193   175 1
  203   194   175 1
  204   195   160 1
  205   196   160 1
  206   197   158 1
  207   198   158 1
  208   199   158 1
  209   200   157 1
  210   201   157 1
  211   202   157 1
  212   203   156 1
  213   204   156 1
  214   205   156 1
  215   206   155 1
  216   207   155 1
  217   208   155 1
  218   209   154 1
  219   210   154 1
  220   211   154 1
  221   212   141 1
  222   213   146 1
  223   214   145 1
  224   215   142 1
  225   216   142 1
  226   217   174 1
  227   218   173 1
  228   219   171 1
  229   220   170 1
  230   221   169 1
  231   222   140 1
  232   223   167 1
  233   224   166 1
  234   225   165 1
  235   226   163 1
  236   227   161 1
  237   228   139 1
  238   229   139 1
  239   230   153 1
  240   231   152 1
  241   232   150 1
  242   233   149 1
  243   234   148 1
  244   235   162 1
  245   65    153 1
  246   65    174 1
@<TRIPOS>SUBSTRUCTURE
      1 CLA               1 ****               0 ****  **** 
      2 LUT             138 ****               0 ****  **** 
