@<TRIPOS>MOLECULE
Cpptraj generated mol2 file.
  235   246     2     0     0
SMALL
USER_CHARGES


@<TRIPOS>ATOM
      1 CAA        77.6092   57.5681   34.2558 a2         1 CLA     -0.055900
      2 CAB        77.9445   61.9611   42.9175 c8         1 CLA     -0.148500
      3 CAC        71.1819   57.5720   42.9748 a2         1 CLA     -0.012600
      4 CAD        73.6610   54.6993   35.9166 ck         1 CLA      0.398800
      5 NA         76.7817   57.9907   37.7232 ns         1 CLA     -0.225500
      6 CBA        78.7937   57.4781   33.2943 a2         1 CLA     -0.135000
      7 CBB        77.6705   61.2545   44.0176 c0         1 CLA     -0.395200
      8 CBC        71.4822   56.1206   43.3604 a3         1 CLA     -0.037700
      9 CBD        75.1991   55.2092   35.5097 a1         1 CLA     -0.053900
     10 NB         76.5551   60.0196   40.0162 nm         1 CLA     -0.295700
     11 OBD        73.0922   53.7950   35.3010 o2         1 CLA     -0.494600
     12 CGA        79.3188   56.1188   33.1384 c4         1 CLA      0.827000
     13 CGD        76.2721   54.0513   35.3074 c4         1 CLA      0.655300
     14 ND         73.9798   57.0923   38.4596 nm         1 CLA     -0.291600
     15 CED        77.2843   52.0796   36.4155 a3         1 CLA      0.005400
     16 CHA        75.4936   56.3418   36.5555 cs         1 CLA     -0.123800
     17 CHB        78.4799   59.7628   38.4867 aa         1 CLA     -0.291900
     18 CHC        75.1892   60.5225   42.0151 aa         1 CLA     -0.090400
     19 CHD        72.2147   57.1072   40.0821 aa         1 CLA     -0.052000
     20 CMA        80.0410   57.3115   37.2151 a3         1 CLA     -0.230700
     21 CMB        79.8735   61.6067   40.4915 a3         1 CLA     -0.180800
     22 CMC        72.9611   60.0309   44.1841 a3         1 CLA     -0.134000
     23 CMD        71.0556   54.8039   38.0070 a3         1 CLA     -0.141100
     24 C1         80.9020   54.5873   34.1142 a2         1 CLA      0.023000
     25 C1A        76.6542   57.0471   36.6668 ac         1 CLA     -0.015100
     26 C1B        77.8819   60.2739   39.6132 cr         1 CLA      0.054700
     27 C1C        74.0471   59.6698   41.8144 cn         1 CLA     -0.005600
     28 C1D        72.7231   56.6716   38.8410 ap         1 CLA     -0.047300
     29 O1A        78.9467   55.2207   32.3951 o2         1 CLA     -0.610800
     30 O1D        76.9544   53.8442   34.3142 o2         1 CLA     -0.558200
     31 C2         81.6875   54.6840   35.3882 c8         1 CLA     -0.325100
     32 C2A        77.9356   57.1256   35.7269 a1         1 CLA      0.098600
     33 C2B        78.4901   61.1401   40.6307 cb         1 CLA      0.088500
     34 C2C        72.9865   59.3542   42.8558 cb         1 CLA      0.053700
     35 C2D        72.2594   55.6884   37.9013 cb         1 CLA      0.058900
     36 O2A        80.2898   55.8898   34.0511 o1         1 CLA     -0.437200
     37 O2D        76.3597   53.2547   36.4131 o1         1 CLA     -0.357600
     38 C3         81.9979   53.6695   36.2161 c5         1 CLA      0.031200
     39 C3A        78.8669   58.0697   36.5724 a1         1 CLA      0.166800
     40 C3B        77.6265   61.3309   41.6777 cb         1 CLA      0.035000
     41 C3C        72.2849   58.3254   42.3233 cb         1 CLA     -0.089900
     42 C3D        73.2871   55.4898   37.0018 cb         1 CLA     -0.035900
     43 C4         81.2005   53.1396   37.3449 a3         1 CLA     -0.053300
     44 C4A        77.9523   58.7049   37.6705 ac         1 CLA      0.001800
     45 C4B        76.3420   60.6849   41.2707 cn         1 CLA     -0.020900
     46 C4C        72.7101   58.0651   40.9623 cr         1 CLA     -0.044400
     47 C4D        74.3580   56.4164   37.3333 c6         1 CLA     -0.046000
     48 C5         83.3493   52.8734   36.1081 a2         1 CLA     -0.070400
     49 C6         84.5765   53.7435   36.2149 a2         1 CLA      0.043900
     50 C7         84.7944   54.3219   37.6491 a2         1 CLA     -0.150000
     51 C8         85.3745   55.7418   37.5749 a1         1 CLA      0.064200
     52 C9         86.8058   55.8025   36.9197 a3         1 CLA     -0.259300
     53 C10        85.4296   56.3134   39.0584 a2         1 CLA     -0.071900
     54 C11        84.0200   56.5388   39.7403 a2         1 CLA      0.014500
     55 C12        84.0241   57.5846   40.8647 a2         1 CLA     -0.112100
     56 C13        84.8199   57.2312   42.2171 a1         1 CLA      0.089200
     57 C14        84.2220   56.1404   42.9526 a3         1 CLA     -0.239100
     58 C15        84.9832   58.5416   43.0309 a2         1 CLA     -0.102200
     59 C16        83.7185   59.1087   43.6852 a2         1 CLA      0.023900
     60 C17        84.0177   60.5557   44.2210 a2         1 CLA     -0.105700
     61 C18        82.7732   61.3342   44.8136 a1         1 CLA      0.206800
     62 C19        82.1086   60.5055   45.9135 a3         1 CLA     -0.280100
     63 C20        83.1333   62.6729   45.4212 a3         1 CLA     -0.280100
     64 NC         73.8126   58.8094   40.7153 nx         1 CLA     -0.309200
     65 MG         75.2062   58.6507   39.1015 mg         1 CLA      0.895000
     66 HMD3       70.1717   55.4360   37.7476 dc         1 CLA      0.064300
     67 HMD2       71.0729   53.9542   37.3554 dc         1 CLA      0.064300
     68 HMD1       71.1104   54.4808   39.0336 dc         1 CLA      0.064300
     69 HMC3       73.8040   59.7685   44.7831 dc         1 CLA      0.052100
     70 HMC2       72.9293   61.1093   44.0251 dc         1 CLA      0.052100
     71 HMC1       72.0924   59.7615   44.6917 dc         1 CLA      0.052100
     72 HMB3       80.1082   62.3913   41.2407 dc         1 CLA      0.063600
     73 HMB2       80.5427   60.8043   40.6264 dc         1 CLA      0.063600
     74 HMB1       80.0624   62.1815   39.6127 dc         1 CLA      0.063600
     75 HMA3       80.4523   57.9784   37.9784 dc         1 CLA      0.058300
     76 HMA2       79.7154   56.3559   37.6936 dc         1 CLA      0.058300
     77 HMA1       80.8017   57.1020   36.4296 dc         1 CLA      0.058300
     78 HED3       77.1018   51.3725   35.6749 dc         1 CLA      0.079300
     79 HED2       78.3619   52.4827   36.4912 dc         1 CLA      0.079300
     80 HED1       77.1310   51.5769   37.3691 dc         1 CLA      0.079300
     81 HBC3       72.4049   56.0702   43.9269 dc         1 CLA      0.016300
     82 HBC2       70.6595   55.6025   43.9465 dc         1 CLA      0.016300
     83 HBC1       71.6830   55.4628   42.4965 dc         1 CLA      0.016300
     84 HBB2       77.8211   61.6379   45.0189 da         1 CLA      0.183000
     85 HBB1       77.4891   60.1557   43.9013 da         1 CLA      0.183000
     86 HBA2       78.5014   57.8391   32.3181 dc         1 CLA      0.029400
     87 HBA1       79.5204   58.0837   33.7728 dc         1 CLA      0.029400
     88 HAC2       71.0113   58.0358   43.9283 dc         1 CLA      0.029300
     89 HAC1       70.2767   57.5776   42.2932 dc         1 CLA      0.029300
     90 HAA2       76.9116   56.8426   33.8736 dc         1 CLA      0.028700
     91 HAA1       77.1185   58.4945   34.1588 dc         1 CLA      0.028700
     92 H203       82.2876   63.2742   45.7313 dc         1 CLA      0.065600
     93 H202       83.7976   62.5592   46.2565 dc         1 CLA      0.065600
     94 H201       83.7032   63.2185   44.6603 dc         1 CLA      0.065600
     95 H193       82.8868   60.2145   46.6046 dc         1 CLA      0.065600
     96 H192       81.4580   61.0571   46.5099 dc         1 CLA      0.065600
     97 H191       81.6689   59.5188   45.5239 dc         1 CLA      0.065600
     98 H172       84.6663   60.4605   45.1081 dc         1 CLA      0.027600
     99 H171       84.3514   61.2252   43.4046 dc         1 CLA      0.027600
    100 H162       82.8981   59.1116   43.0094 dc         1 CLA      0.002900
    101 H161       83.3842   58.5319   44.5679 dc         1 CLA      0.002900
    102 H152       85.7273   58.4705   43.8078 dc         1 CLA      0.029100
    103 H151       85.5042   59.2610   42.3640 dc         1 CLA      0.029100
    104 H143       84.9186   55.9274   43.7673 dc         1 CLA      0.063600
    105 H142       83.2113   56.4186   43.2965 dc         1 CLA      0.063600
    106 H141       84.2110   55.3350   42.1746 dc         1 CLA      0.063600
    107 H122       84.3425   58.6207   40.4920 dc         1 CLA      0.032500
    108 H121       83.0300   57.6589   41.1558 dc         1 CLA      0.032500
    109 H112       83.4095   56.8441   38.9030 dc         1 CLA      0.006600
    110 H111       83.4521   55.6441   39.9498 dc         1 CLA      0.006600
    111 H102       86.0658   55.6823   39.6767 dc         1 CLA      0.024100
    112 H101       85.9592   57.2942   38.9216 dc         1 CLA      0.024100
    113 HHD        71.2504   56.5577   40.1924 da         1 CLA      0.174300
    114 HHC        75.2524   61.0344   42.9401 da         1 CLA      0.136800
    115 HHB        79.5071   60.0938   38.2855 da         1 CLA      0.138300
    116 HBD        74.9811   55.6557   34.5292 dc         1 CLA      0.107700
    117 HAB        78.0801   63.0529   42.8587 da         1 CLA      0.155200
    118 H93        87.5274   55.1830   37.4424 dc         1 CLA      0.069500
    119 H92        86.7474   55.6082   35.8344 dc         1 CLA      0.069500
    120 H91        87.0906   56.8399   37.0209 dc         1 CLA      0.069500
    121 H8         84.6899   56.3764   37.0677 dc         1 CLA      0.029300
    122 H72        83.8651   54.1896   38.2651 dc         1 CLA      0.044400
    123 H71        85.5724   53.7606   38.0675 dc         1 CLA      0.044400
    124 H62        85.4198   53.1273   35.8472 dc         1 CLA      0.015600
    125 H61        84.3771   54.4768   35.3769 dc         1 CLA      0.015600
    126 H52        83.5915   52.0020   36.8311 dc         1 CLA      0.033200
    127 H51        83.3678   52.4171   35.1085 dc         1 CLA      0.033200
    128 H43        80.4570   53.8502   37.6688 dc         1 CLA      0.037000
    129 H42        80.7327   52.2394   37.0806 dc         1 CLA      0.037000
    130 H41        81.8859   52.9168   38.2349 dc         1 CLA      0.037000
    131 H3A        79.2669   58.8668   35.9577 dc         1 CLA      0.041100
    132 H2A        78.2628   56.0870   35.6810 dc         1 CLA      0.083100
    133 H2         81.9929   55.6344   35.6705 da         1 CLA      0.180900
    134 H18        82.1467   61.6691   43.9698 dc         1 CLA     -0.003900
    135 H13        85.7808   56.8734   41.9601 dc         1 CLA      0.019700
    136 H12        80.1614   53.8479   34.2388 dc         1 CLA      0.120400
    137 H11        81.5390   54.4213   33.2531 dc         1 CLA      0.120400
    138 C1         67.4593   61.4671   50.3516 Z1         2 LUT      0.509236
    139 C2         66.1026   61.2909   50.9593 Z2         2 LUT     -0.434695
    140 C3         65.2314   62.5385   51.3272 Z3         2 LUT      0.437453
    141 O3         65.3755   62.7943   52.7155 S1         2 LUT     -0.547129
    142 C4         65.5833   63.7382   50.4217 Z4         2 LUT     -0.468603
    143 C5         66.4022   63.4031   49.1340 Z5         2 LUT      0.279246
    144 C6         67.3086   62.3907   49.0953 Z6         2 LUT     -0.305473
    145 C7         67.7197   61.8347   47.7830 Z7         2 LUT      0.069402
    146 C8         68.8205   62.0552   47.0309 Z8         2 LUT     -0.191631
    147 C9         69.0757   61.8235   45.5572 Z9         2 LUT      0.196698
    148 C10        70.0904   62.6675   45.1455 Y1         2 LUT     -0.208611
    149 C11        70.5731   62.7743   43.7871 Y2         2 LUT      0.030784
    150 C12        71.8286   63.2966   43.5087 Y3         2 LUT     -0.220316
    151 C13        72.4609   63.3692   42.2392 Y4         2 LUT      0.215937
    152 C14        73.7001   63.9196   42.2556 Y5         2 LUT     -0.185793
    153 C15        74.7632   64.0293   41.2805 Y6         2 LUT     -0.057835
    154 C16        67.8894   60.0213   50.1033 Y7         2 LUT     -0.405615
    155 C17        68.3527   62.0314   51.4901 Y7         2 LUT     -0.405615
    156 C18        65.7018   64.1169   47.9713 Y9         2 LUT     -0.369639
    157 C19        68.3403   60.8112   44.7654 W1         2 LUT     -0.333362
    158 C20        71.9783   62.4797   41.0581 W2         2 LUT     -0.323439
    159 C21        86.3531   64.9634   35.4408 Z1         2 LUT      0.406104
    160 C22        87.2271   64.2493   34.3537 Z2         2 LUT     -0.404965
    161 C23        87.0910   64.9892   32.9683 Z3         2 LUT      0.391255
    162 O23        87.5534   64.0276   31.9851 S1         2 LUT     -0.528210
    163 C24        85.7036   65.4396   32.6935 W6         2 LUT     -0.258361
    164 C25        84.7195   65.5832   33.5765 Z5         2 LUT      0.133546
    165 C26        84.8586   65.1784   35.0642 W8         2 LUT     -0.147008
    166 C27        84.0660   65.9616   36.0176 Z7         2 LUT      0.023843
    167 C28        82.9331   65.4771   36.6895 Z8         2 LUT     -0.216987
    168 C29        82.2382   66.0853   37.7902 Z9         2 LUT      0.206524
    169 C30        81.1197   65.4504   38.3762 Y1         2 LUT     -0.215556
    170 C31        80.2728   65.8920   39.4457 Y2         2 LUT      0.025142
    171 C32        79.1884   65.1511   39.7530 Y3         2 LUT     -0.212209
    172 C33        78.2976   65.2621   40.8150 Y4         2 LUT      0.240937
    173 C34        77.0952   64.6137   40.7464 Y5         2 LUT     -0.218862
    174 C35        75.9802   64.4373   41.6413 Y6         2 LUT     -0.023547
    175 C36        87.1331   66.2573   35.7808 Y7         2 LUT     -0.393485
    176 C37        86.6381   64.0652   36.6527 Y7         2 LUT     -0.393485
    177 C38        83.4165   66.1578   33.0785 Y9         2 LUT     -0.387526
    178 C39        82.7673   67.3802   38.2359 W1         2 LUT     -0.322618
    179 C40        78.7241   66.0413   42.0902 W2         2 LUT     -0.358472
    180 H403       78.2642   65.6814   42.9767 R7         2 LUT      0.097720
    181 H402       79.7885   66.0984   42.3730 R7         2 LUT      0.097720
    182 H401       78.2725   67.0344   42.0592 R7         2 LUT      0.097720
    183 H393       82.9965   67.9916   37.4083 R4         2 LUT      0.082505
    184 H392       82.1231   68.0794   38.7793 R4         2 LUT      0.082505
    185 H391       83.7260   67.3204   38.7130 R4         2 LUT      0.082505
    186 H383       82.8172   66.7529   33.8357 R1         2 LUT      0.104030
    187 H382       83.5905   66.8777   32.1742 R1         2 LUT      0.104030
    188 H381       82.8514   65.3587   32.6881 R1         2 LUT      0.104030
    189 H373       86.4253   64.6757   37.4556 T4         2 LUT      0.089537
    190 H372       86.1601   63.1085   36.7353 T4         2 LUT      0.089537
    191 H371       87.7230   63.8594   36.7420 T4         2 LUT      0.089537
    192 H363       88.1199   65.9330   36.0226 T4         2 LUT      0.089537
    193 H362       87.0860   66.9076   34.9220 T4         2 LUT      0.089537
    194 H361       86.7796   66.7227   36.6724 T4         2 LUT      0.089537
    195 H222       88.2956   64.0451   34.6377 U2         2 LUT      0.127376
    196 H221       86.9039   63.2271   34.2288 U2         2 LUT      0.127376
    197 H203       71.8104   61.4528   41.2760 R7         2 LUT      0.087068
    198 H202       71.0417   62.8936   40.7085 R7         2 LUT      0.087068
    199 H201       72.6911   62.4128   40.2472 R7         2 LUT      0.087068
    200 H193       67.2230   60.8997   44.9335 R4         2 LUT      0.089716
    201 H192       68.5382   60.9639   43.7386 R4         2 LUT      0.089716
    202 H191       68.7685   59.8524   45.0556 R4         2 LUT      0.089716
    203 H183       64.6809   64.1856   48.0216 R1         2 LUT      0.094572
    204 H182       66.1605   65.0809   47.6960 R1         2 LUT      0.094572
    205 H181       65.9081   63.6160   46.9940 R1         2 LUT      0.094572
    206 H173       69.4731   61.8890   51.3269 T4         2 LUT      0.093752
    207 H172       68.0843   62.9799   51.9592 T4         2 LUT      0.093752
    208 H171       68.2199   61.2908   52.2692 T4         2 LUT      0.093752
    209 H163       68.0581   59.4165   51.0200 T4         2 LUT      0.093752
    210 H162       67.1408   59.4901   49.5753 T4         2 LUT      0.093752
    211 H161       68.8000   60.0235   49.4842 T4         2 LUT      0.093752
    212 HO3        64.7552   62.3119   53.2949 Q1         2 LUT      0.300121
    213 H8         69.5921   62.6748   47.5529 U7         2 LUT      0.080784
    214 H7         66.8907   61.2924   47.3651 U6         2 LUT      0.042190
    215 H42        64.5973   64.2005   50.1333 U5         2 LUT      0.145166
    216 H41        66.1003   64.5511   50.9384 U5         2 LUT      0.145166
    217 H35        76.2163   64.7331   42.6670 T3         2 LUT      0.077919
    218 H34        76.8413   64.0894   39.8265 T2         2 LUT      0.073626
    219 H32        79.0010   64.2222   39.1668 T1         2 LUT      0.092510
    220 H31        80.4330   66.8054   40.0121 U9         2 LUT      0.070048
    221 H30        80.8938   64.4195   37.9385 U8         2 LUT      0.085442
    222 H3         64.1591   62.2874   51.1043 U3         2 LUT     -0.031596
    223 H28        82.6251   64.5280   36.4527 U7         2 LUT      0.084728
    224 H27        84.5553   66.8793   36.2972 U6         2 LUT      0.087291
    225 H26        84.4139   64.2198   34.9048 Q6         2 LUT      0.075325
    226 H24        85.5695   65.7654   31.7088 Q5         2 LUT      0.094482
    227 H23        87.8038   65.8355   32.9703 U3         2 LUT     -0.024869
    228 H22        65.5843   60.7798   50.1672 U2         2 LUT      0.127376
    229 H21        66.1446   60.7056   51.8727 U2         2 LUT      0.127376
    230 H15        74.6179   63.8351   40.2602 T3         2 LUT      0.093200
    231 H14        74.0355   64.4514   43.1639 T2         2 LUT      0.068865
    232 H12        72.4911   63.3447   44.3154 T1         2 LUT      0.095507
    233 H11        70.0115   62.3520   43.0020 U9         2 LUT      0.068930
    234 H10        70.5717   63.3302   45.8252 U8         2 LUT      0.083911
    235 H1         87.3754   64.2881   31.0649 Q1         2 LUT      0.297311
@<TRIPOS>BOND
    1     6     1 1
    2     7     2 1
    3     8     3 1
    4     9     4 1
    5    11     4 1
    6    12     6 1
    7    13     9 1
    8    16     9 1
    9    25     5 1
   10    25    16 1
   11    26    10 1
   12    26    17 1
   13    27    18 1
   14    28    14 1
   15    28    19 1
   16    29    12 1
   17    30    13 1
   18    31    24 1
   19    32     1 1
   20    32    25 1
   21    33    21 1
   22    33    26 1
   23    34    22 1
   24    34    27 1
   25    35    23 1
   26    35    28 1
   27    36    12 1
   28    36    24 1
   29    37    13 1
   30    37    15 1
   31    38    31 1
   32    39    20 1
   33    39    32 1
   34    40     2 1
   35    40    33 1
   36    41     3 1
   37    41    34 1
   38    42     4 1
   39    42    35 1
   40    43    38 1
   41    44     5 1
   42    44    17 1
   43    44    39 1
   44    45    10 1
   45    45    18 1
   46    45    40 1
   47    46    19 1
   48    46    41 1
   49    47    14 1
   50    47    16 1
   51    47    42 1
   52    48    38 1
   53    49    48 1
   54    50    49 1
   55    51    50 1
   56    52    51 1
   57    53    51 1
   58    54    53 1
   59    55    54 1
   60    56    55 1
   61    57    56 1
   62    58    56 1
   63    59    58 1
   64    60    59 1
   65    61    60 1
   66    62    61 1
   67    63    61 1
   68    64    27 1
   69    64    46 1
   70    65     5 1
   71    65    10 1
   72    65    64 1
   73    65    14 1
   74    66    23 1
   75    67    23 1
   76    68    23 1
   77    69    22 1
   78    70    22 1
   79    71    22 1
   80    72    21 1
   81    73    21 1
   82    74    21 1
   83    75    20 1
   84    76    20 1
   85    77    20 1
   86    78    15 1
   87    79    15 1
   88    80    15 1
   89    81     8 1
   90    82     8 1
   91    83     8 1
   92    84     7 1
   93    85     7 1
   94    86     6 1
   95    87     6 1
   96    88     3 1
   97    89     3 1
   98    90     1 1
   99    91     1 1
  100    92    63 1
  101    93    63 1
  102    94    63 1
  103    95    62 1
  104    96    62 1
  105    97    62 1
  106    98    60 1
  107    99    60 1
  108   100    59 1
  109   101    59 1
  110   102    58 1
  111   103    58 1
  112   104    57 1
  113   105    57 1
  114   106    57 1
  115   107    55 1
  116   108    55 1
  117   109    54 1
  118   110    54 1
  119   111    53 1
  120   112    53 1
  121   113    19 1
  122   114    18 1
  123   115    17 1
  124   116     9 1
  125   117     2 1
  126   118    52 1
  127   119    52 1
  128   120    52 1
  129   121    51 1
  130   122    50 1
  131   123    50 1
  132   124    49 1
  133   125    49 1
  134   126    48 1
  135   127    48 1
  136   128    43 1
  137   129    43 1
  138   130    43 1
  139   131    39 1
  140   132    32 1
  141   133    31 1
  142   134    61 1
  143   135    56 1
  144   136    24 1
  145   137    24 1
  146   139   138 1
  147   140   139 1
  148   141   140 1
  149   142   140 1
  150   143   142 1
  151   144   138 1
  152   144   143 1
  153   145   144 1
  154   146   145 1
  155   147   146 1
  156   148   147 1
  157   149   148 1
  158   150   149 1
  159   151   150 1
  160   152   151 1
  161   153   152 1
  162   154   138 1
  163   155   138 1
  164   156   143 1
  165   157   147 1
  166   158   151 1
  167   160   159 1
  168   161   160 1
  169   162   161 1
  170   163   161 1
  171   164   163 1
  172   165   159 1
  173   165   164 1
  174   166   165 1
  175   167   166 1
  176   168   167 1
  177   169   168 1
  178   170   169 1
  179   171   170 1
  180   172   171 1
  181   173   172 1
  182   174   153 1
  183   174   173 1
  184   175   159 1
  185   176   159 1
  186   177   164 1
  187   178   168 1
  188   179   172 1
  189   180   179 1
  190   181   179 1
  191   182   179 1
  192   183   178 1
  193   184   178 1
  194   185   178 1
  195   186   177 1
  196   187   177 1
  197   188   177 1
  198   189   176 1
  199   190   176 1
  200   191   176 1
  201   192   175 1
  202   193   175 1
  203   194   175 1
  204   195   160 1
  205   196   160 1
  206   197   158 1
  207   198   158 1
  208   199   158 1
  209   200   157 1
  210   201   157 1
  211   202   157 1
  212   203   156 1
  213   204   156 1
  214   205   156 1
  215   206   155 1
  216   207   155 1
  217   208   155 1
  218   209   154 1
  219   210   154 1
  220   211   154 1
  221   212   141 1
  222   213   146 1
  223   214   145 1
  224   215   142 1
  225   216   142 1
  226   217   174 1
  227   218   173 1
  228   219   171 1
  229   220   170 1
  230   221   169 1
  231   222   140 1
  232   223   167 1
  233   224   166 1
  234   225   165 1
  235   226   163 1
  236   227   161 1
  237   228   139 1
  238   229   139 1
  239   230   153 1
  240   231   152 1
  241   232   150 1
  242   233   149 1
  243   234   148 1
  244   235   162 1
  245   65    153 1
  246   65    174 1
@<TRIPOS>SUBSTRUCTURE
      1 CLA               1 ****               0 ****  **** 
      2 LUT             138 ****               0 ****  **** 
