@<TRIPOS>MOLECULE
Cpptraj generated mol2 file.
  235   246     2     0     0
SMALL
USER_CHARGES


@<TRIPOS>ATOM
      1 CAA        77.8350   58.0855   34.7198 a2         1 CLA     -0.055900
      2 CAB        77.4769   62.6264   43.4667 c8         1 CLA     -0.148500
      3 CAC        70.8575   58.1723   43.1122 a2         1 CLA     -0.012600
      4 CAD        73.9237   55.3493   36.0873 ck         1 CLA      0.398800
      5 NA         76.9343   58.6413   38.1169 ns         1 CLA     -0.225500
      6 CBA        79.0274   58.2210   33.7248 a2         1 CLA     -0.135000
      7 CBB        76.4768   63.1205   44.1763 c0         1 CLA     -0.395200
      8 CBC        70.9292   56.6412   43.2536 a3         1 CLA     -0.037700
      9 CBD        75.3299   55.9910   35.7150 a1         1 CLA     -0.053900
     10 NB         76.5445   60.4265   40.5170 nm         1 CLA     -0.295700
     11 OBD        73.3623   54.3458   35.6006 o2         1 CLA     -0.494600
     12 CGA        79.7256   56.9192   33.3186 c4         1 CLA      0.827000
     13 CGD        76.3439   54.9110   35.6601 c4         1 CLA      0.655300
     14 ND         74.1169   57.7481   38.7117 nm         1 CLA     -0.291600
     15 CED        77.1705   52.9354   36.9586 a3         1 CLA      0.005400
     16 CHA        75.6274   57.0760   36.8480 cs         1 CLA     -0.123800
     17 CHB        78.5789   60.1588   39.0582 aa         1 CLA     -0.291900
     18 CHC        75.2324   60.6079   42.5570 aa         1 CLA     -0.090400
     19 CHD        72.1642   57.6588   40.2612 aa         1 CLA     -0.052000
     20 CMA        80.4006   58.1965   37.2490 a3         1 CLA     -0.230700
     21 CMB        79.7867   62.2208   41.1634 a3         1 CLA     -0.180800
     22 CMC        72.8651   60.1190   44.6877 a3         1 CLA     -0.134000
     23 CMD        71.1708   55.5961   38.0291 a3         1 CLA     -0.141100
     24 C1         81.2506   55.2899   34.1525 a2         1 CLA      0.023000
     25 C1A        76.7987   57.8078   37.0497 ac         1 CLA     -0.015100
     26 C1B        77.8336   60.7255   40.1624 cr         1 CLA      0.054700
     27 C1C        74.1023   59.8482   42.2655 cn         1 CLA     -0.005600
     28 C1D        72.8197   57.2975   39.0989 ap         1 CLA     -0.047300
     29 O1A        79.7673   56.3882   32.2124 o2         1 CLA     -0.610800
     30 O1D        77.1711   54.6507   34.8152 o2         1 CLA     -0.558200
     31 C2         81.3154   54.3856   35.3535 c8         1 CLA     -0.325100
     32 C2A        78.0522   57.7388   36.2448 a1         1 CLA      0.098600
     33 C2B        78.3693   61.6708   41.1946 cb         1 CLA      0.088500
     34 C2C        73.0435   59.6380   43.2119 cb         1 CLA      0.053700
     35 C2D        72.4091   56.3636   38.1138 cb         1 CLA      0.058900
     36 O2A        80.3998   56.4405   34.4592 o1         1 CLA     -0.437200
     37 O2D        76.4258   54.2657   36.9017 o1         1 CLA     -0.357600
     38 C3         82.4541   54.1328   36.0739 c5         1 CLA      0.031200
     39 C3A        78.9649   58.7429   36.9269 a1         1 CLA      0.166800
     40 C3B        77.3642   61.8532   42.1934 cb         1 CLA      0.035000
     41 C3C        72.1343   58.8049   42.5709 cb         1 CLA     -0.089900
     42 C3D        73.5160   56.1458   37.1926 cb         1 CLA     -0.035900
     43 C4         83.4270   52.9591   35.7924 a3         1 CLA     -0.053300
     44 C4A        78.1222   59.2176   38.0918 ac         1 CLA      0.001800
     45 C4B        76.3104   60.9860   41.7634 cn         1 CLA     -0.020900
     46 C4C        72.6526   58.5583   41.1963 cr         1 CLA     -0.044400
     47 C4D        74.5387   57.0233   37.6541 c6         1 CLA     -0.046000
     48 C5         82.7742   55.0346   37.2687 a2         1 CLA     -0.070400
     49 C6         83.8136   56.1097   37.2467 a2         1 CLA      0.043900
     50 C7         83.8961   56.7015   38.6926 a2         1 CLA     -0.150000
     51 C8         84.4182   58.1312   38.8735 a1         1 CLA      0.064200
     52 C9         85.8878   58.3101   38.3898 a3         1 CLA     -0.259300
     53 C10        84.2315   58.5750   40.3160 a2         1 CLA     -0.071900
     54 C11        82.8256   58.5845   40.9183 a2         1 CLA      0.014500
     55 C12        82.8441   59.4998   42.2466 a2         1 CLA     -0.112100
     56 C13        83.7789   59.0362   43.4250 a1         1 CLA      0.089200
     57 C14        83.3149   57.7395   44.0332 a3         1 CLA     -0.239100
     58 C15        84.1481   60.2247   44.4567 a2         1 CLA     -0.102200
     59 C16        82.9316   61.0429   44.9168 a2         1 CLA      0.023900
     60 C17        83.3792   62.0502   45.9941 a2         1 CLA     -0.105700
     61 C18        82.2072   62.6366   46.8399 a1         1 CLA      0.206800
     62 C19        82.6309   63.8083   47.8615 a3         1 CLA     -0.280100
     63 C20        80.9825   63.1938   46.0769 a3         1 CLA     -0.280100
     64 NC         73.8472   59.2488   41.0978 nx         1 CLA     -0.309200
     65 MG         75.2768   59.1956   39.5173 mg         1 CLA      0.895000
     66 HMD3       70.6867   55.6921   37.0915 dc         1 CLA      0.064300
     67 HMD2       71.4185   54.5187   38.2079 dc         1 CLA      0.064300
     68 HMD1       70.4813   55.9883   38.7505 dc         1 CLA      0.064300
     69 HMC3       73.7664   60.0747   45.2944 dc         1 CLA      0.052100
     70 HMC2       72.3868   61.0953   44.6462 dc         1 CLA      0.052100
     71 HMC1       72.1459   59.4574   45.1888 dc         1 CLA      0.052100
     72 HMB3       80.1303   62.2746   42.1894 dc         1 CLA      0.063600
     73 HMB2       80.4436   61.4505   40.7372 dc         1 CLA      0.063600
     74 HMB1       79.8491   63.1811   40.7338 dc         1 CLA      0.063600
     75 HMA3       80.8022   58.1068   36.2210 dc         1 CLA      0.058300
     76 HMA2       80.8549   58.8862   37.9753 dc         1 CLA      0.058300
     77 HMA1       80.3556   57.2206   37.6923 dc         1 CLA      0.058300
     78 HED3       76.7178   52.2028   36.3404 dc         1 CLA      0.079300
     79 HED2       78.1671   53.0229   36.6884 dc         1 CLA      0.079300
     80 HED1       77.0258   52.5539   38.0048 dc         1 CLA      0.079300
     81 HBC3       70.0165   56.3092   43.6366 dc         1 CLA      0.016300
     82 HBC2       71.1233   56.1030   42.3872 dc         1 CLA      0.016300
     83 HBC1       71.7012   56.4256   43.9605 dc         1 CLA      0.016300
     84 HBB2       76.6046   63.8485   45.0736 da         1 CLA      0.183000
     85 HBB1       75.4128   63.0168   43.8414 da         1 CLA      0.183000
     86 HBA2       78.5098   58.5928   32.8219 dc         1 CLA      0.029400
     87 HBA1       79.7519   58.9688   34.0246 dc         1 CLA      0.029400
     88 HAC2       70.5758   58.5643   44.1232 dc         1 CLA      0.029300
     89 HAC1       70.0437   58.4458   42.4558 dc         1 CLA      0.029300
     90 HAA2       77.2425   57.3258   34.2377 dc         1 CLA      0.028700
     91 HAA1       77.3014   59.0294   34.6813 dc         1 CLA      0.028700
     92 H203       80.1440   63.3392   46.7341 dc         1 CLA      0.065600
     93 H202       81.2101   64.0235   45.4547 dc         1 CLA      0.065600
     94 H201       80.5918   62.3832   45.4802 dc         1 CLA      0.065600
     95 H193       81.9025   64.5634   48.1507 dc         1 CLA      0.065600
     96 H192       83.0079   63.3885   48.7913 dc         1 CLA      0.065600
     97 H191       83.4960   64.4461   47.4714 dc         1 CLA      0.065600
     98 H172       84.0622   61.6711   46.7899 dc         1 CLA      0.027600
     99 H171       83.9884   62.8609   45.5871 dc         1 CLA      0.027600
    100 H162       82.3374   61.4322   44.0242 dc         1 CLA      0.002900
    101 H161       82.3226   60.2744   45.4030 dc         1 CLA      0.002900
    102 H152       84.6397   59.8509   45.4015 dc         1 CLA      0.029100
    103 H151       84.9119   60.9110   44.0062 dc         1 CLA      0.029100
    104 H143       84.0230   57.2668   44.6996 dc         1 CLA      0.063600
    105 H142       82.3904   57.7276   44.6102 dc         1 CLA      0.063600
    106 H141       83.0974   57.1774   43.1409 dc         1 CLA      0.063600
    107 H122       83.1868   60.4447   41.9043 dc         1 CLA      0.032500
    108 H121       81.8017   59.5640   42.6083 dc         1 CLA      0.032500
    109 H112       82.1725   59.0315   40.1818 dc         1 CLA      0.006600
    110 H111       82.4958   57.5596   41.1677 dc         1 CLA      0.006600
    111 H102       84.8512   57.9616   40.9192 dc         1 CLA      0.024100
    112 H101       84.6412   59.6046   40.3583 dc         1 CLA      0.024100
    113 HHD        71.2661   57.1206   40.5655 da         1 CLA      0.174300
    114 HHC        75.2872   60.9525   43.5989 da         1 CLA      0.136800
    115 HHB        79.6620   60.5141   38.9877 da         1 CLA      0.138300
    116 HBD        75.3164   56.4559   34.7197 dc         1 CLA      0.107700
    117 HAB        78.5681   62.9260   43.5890 da         1 CLA      0.155200
    118 H93        86.0447   59.4441   38.5148 dc         1 CLA      0.069500
    119 H92        86.5519   57.7762   39.0847 dc         1 CLA      0.069500
    120 H91        86.1065   58.0454   37.2967 dc         1 CLA      0.069500
    121 H8         83.7473   58.7620   38.2524 dc         1 CLA      0.029300
    122 H72        82.8876   56.6928   39.1401 dc         1 CLA      0.044400
    123 H71        84.4278   56.1246   39.4243 dc         1 CLA      0.044400
    124 H62        84.7568   55.5494   37.0609 dc         1 CLA      0.015600
    125 H61        83.5223   56.8678   36.5390 dc         1 CLA      0.015600
    126 H52        81.9303   55.4545   37.7536 dc         1 CLA      0.033200
    127 H51        83.1352   54.2722   37.9207 dc         1 CLA      0.033200
    128 H43        83.1863   52.4600   34.8479 dc         1 CLA      0.037000
    129 H42        84.3724   53.3697   35.6628 dc         1 CLA      0.037000
    130 H41        83.4578   52.1835   36.6254 dc         1 CLA      0.037000
    131 H3A        79.1316   59.5876   36.3296 dc         1 CLA      0.041100
    132 H2A        78.5346   56.7523   36.1286 dc         1 CLA      0.083100
    133 H2         80.3374   53.9068   35.7136 da         1 CLA      0.180900
    134 H18        81.8352   61.8440   47.3553 dc         1 CLA     -0.003900
    135 H13        84.7291   58.8264   42.9968 dc         1 CLA      0.019700
    136 H12        80.8159   54.6146   33.4013 dc         1 CLA      0.120400
    137 H11        82.2308   55.7787   33.9646 dc         1 CLA      0.120400
    138 C1         67.3785   62.4316   50.6625 Z1         2 LUT      0.509236
    139 C2         67.0514   63.4217   51.8291 Z2         2 LUT     -0.434695
    140 C3         65.6137   63.9259   51.6677 Z3         2 LUT      0.437453
    141 O3         65.4088   64.8019   52.8001 S1         2 LUT     -0.547129
    142 C4         65.3972   64.6091   50.3030 Z4         2 LUT     -0.468603
    143 C5         66.0525   63.9707   49.1196 Z5         2 LUT      0.279246
    144 C6         66.9261   62.8995   49.2433 Z6         2 LUT     -0.305473
    145 C7         67.8256   62.5050   48.1478 Z7         2 LUT      0.069402
    146 C8         68.4479   63.1822   47.1400 Z8         2 LUT     -0.191631
    147 C9         69.0874   62.7325   45.8822 Z9         2 LUT      0.196698
    148 C10        70.0227   63.5177   45.2719 Y1         2 LUT     -0.208611
    149 C11        70.6871   63.2538   44.0377 Y2         2 LUT      0.030784
    150 C12        71.7433   64.0310   43.6170 Y3         2 LUT     -0.220316
    151 C13        72.6442   63.7832   42.4622 Y4         2 LUT      0.215937
    152 C14        73.9640   64.3849   42.3319 Y5         2 LUT     -0.185793
    153 C15        75.0059   64.2746   41.2783 Y6         2 LUT     -0.057835
    154 C16        66.7626   61.1054   51.0906 Y7         2 LUT     -0.405615
    155 C17        68.9183   62.2604   50.6582 Y7         2 LUT     -0.405615
    156 C18        65.7465   64.5980   47.7723 Y9         2 LUT     -0.369639
    157 C19        68.6719   61.4035   45.3098 W1         2 LUT     -0.333362
    158 C20        72.1463   62.7962   41.4328 W2         2 LUT     -0.323439
    159 C21        86.8443   65.4846   35.8659 Z1         2 LUT      0.406104
    160 C22        87.6613   64.9218   34.6717 Z2         2 LUT     -0.404965
    161 C23        87.7732   65.8855   33.4501 Z3         2 LUT      0.391255
    162 O23        88.6972   65.2007   32.5058 S1         2 LUT     -0.528210
    163 C24        86.4261   66.4316   32.9724 W6         2 LUT     -0.258361
    164 C25        85.4170   66.4842   33.8149 Z5         2 LUT      0.133546
    165 C26        85.4019   65.9453   35.2669 W8         2 LUT     -0.147008
    166 C27        84.5759   66.7593   36.2039 Z7         2 LUT      0.023843
    167 C28        83.4000   66.3083   36.7841 Z8         2 LUT     -0.216987
    168 C29        82.5531   66.8592   37.8711 Z9         2 LUT      0.206524
    169 C30        81.5399   66.1293   38.3545 Y1         2 LUT     -0.215556
    170 C31        80.6516   66.3094   39.5191 Y2         2 LUT      0.025142
    171 C32        79.4196   65.6867   39.6115 Y3         2 LUT     -0.212209
    172 C33        78.5277   65.6496   40.7518 Y4         2 LUT      0.240937
    173 C34        77.3761   64.9468   40.5766 Y5         2 LUT     -0.218862
    174 C35        76.2197   64.9474   41.3979 Y6         2 LUT     -0.023547
    175 C36        87.5650   66.6669   36.4836 Y7         2 LUT     -0.393485
    176 C37        86.8046   64.3779   36.9358 Y7         2 LUT     -0.393485
    177 C38        83.9975   66.9811   33.3165 Y9         2 LUT     -0.387526
    178 C39        83.0597   68.0692   38.5937 W1         2 LUT     -0.322618
    179 C40        78.9741   66.3060   42.0650 W2         2 LUT     -0.358472
    180 H403       80.0308   66.4068   42.2461 R7         2 LUT      0.097720
    181 H402       78.6793   67.3243   42.1596 R7         2 LUT      0.097720
    182 H401       78.7224   65.7228   42.9444 R7         2 LUT      0.097720
    183 H393       83.8191   67.7093   39.3064 R4         2 LUT      0.082505
    184 H392       83.5105   68.9403   38.0379 R4         2 LUT      0.082505
    185 H391       82.2038   68.5337   39.1942 R4         2 LUT      0.082505
    186 H383       84.0143   67.4693   32.3349 R1         2 LUT      0.104030
    187 H382       83.2460   66.1171   33.3090 R1         2 LUT      0.104030
    188 H381       83.5485   67.7379   33.9829 R1         2 LUT      0.104030
    189 H373       86.0594   64.7221   37.7254 T4         2 LUT      0.089537
    190 H372       86.2952   63.4683   36.5731 T4         2 LUT      0.089537
    191 H371       87.7232   63.9688   37.3688 T4         2 LUT      0.089537
    192 H363       87.7147   67.5345   35.7312 T4         2 LUT      0.089537
    193 H362       86.9474   67.1683   37.3366 T4         2 LUT      0.089537
    194 H361       88.5154   66.3456   36.8814 T4         2 LUT      0.089537
    195 H222       88.7830   64.8003   34.9299 U2         2 LUT      0.127376
    196 H221       87.1986   64.0031   34.2911 U2         2 LUT      0.127376
    197 H203       72.2220   61.7385   41.6248 R7         2 LUT      0.087068
    198 H202       71.1709   63.0000   41.0526 R7         2 LUT      0.087068
    199 H201       72.7811   62.9238   40.5596 R7         2 LUT      0.087068
    200 H193       68.9063   61.3236   44.2645 R4         2 LUT      0.089716
    201 H192       69.1313   60.6273   45.9480 R4         2 LUT      0.089716
    202 H191       67.5813   61.1862   45.3220 R4         2 LUT      0.089716
    203 H183       66.4929   65.3837   47.4634 R1         2 LUT      0.094572
    204 H182       65.7496   63.8643   46.9643 R1         2 LUT      0.094572
    205 H181       64.7366   65.0601   47.9496 R1         2 LUT      0.094572
    206 H173       69.3087   61.3598   50.1375 T4         2 LUT      0.093752
    207 H172       69.5025   63.0604   50.3612 T4         2 LUT      0.093752
    208 H171       69.2414   61.9680   51.6957 T4         2 LUT      0.093752
    209 H163       67.0834   60.2754   50.5994 T4         2 LUT      0.093752
    210 H162       66.9692   60.7898   52.0862 T4         2 LUT      0.093752
    211 H161       65.6875   61.1024   50.9687 T4         2 LUT      0.093752
    212 HO3        64.6367   65.4049   52.7298 Q1         2 LUT      0.300121
    213 H8         68.5082   64.3060   47.0962 U7         2 LUT      0.080784
    214 H7         67.8840   61.4655   47.9750 U6         2 LUT      0.042190
    215 H42        64.3157   64.5539   50.2189 U5         2 LUT      0.145166
    216 H41        65.7605   65.6350   50.4828 U5         2 LUT      0.145166
    217 H35        76.2952   65.6536   42.2254 T3         2 LUT      0.077919
    218 H34        77.1225   64.4779   39.6303 T2         2 LUT      0.073626
    219 H32        79.0113   65.2067   38.6866 T1         2 LUT      0.092510
    220 H31        81.0073   66.9037   40.3627 U9         2 LUT      0.070048
    221 H30        81.3122   65.2192   37.7492 U8         2 LUT      0.085442
    222 H3         65.1065   62.9454   51.7546 U3         2 LUT     -0.031596
    223 H28        83.1455   65.3015   36.5072 U7         2 LUT      0.084728
    224 H27        84.8464   67.8262   36.3605 U6         2 LUT      0.087291
    225 H26        84.8147   65.0320   35.1296 Q6         2 LUT      0.075325
    226 H24        86.3912   66.6970   31.8798 Q5         2 LUT      0.094482
    227 H23        88.3588   66.7497   33.8375 U3         2 LUT     -0.024869
    228 H22        67.2226   63.0939   52.8549 U2         2 LUT      0.127376
    229 H21        67.5622   64.3749   51.6269 U2         2 LUT      0.127376
    230 H15        74.9086   63.5195   40.4666 T3         2 LUT      0.093200
    231 H14        74.3065   65.0485   43.0592 T2         2 LUT      0.068865
    232 H12        72.1632   64.7126   44.3802 T1         2 LUT      0.095507
    233 H11        70.3540   62.5080   43.3480 U9         2 LUT      0.068930
    234 H10        70.3071   64.5084   45.6680 U8         2 LUT      0.083911
    235 H1         88.2412   64.7372   31.7675 Q1         2 LUT      0.297311
@<TRIPOS>BOND
    1     6     1 1
    2     7     2 1
    3     8     3 1
    4     9     4 1
    5    11     4 1
    6    12     6 1
    7    13     9 1
    8    16     9 1
    9    25     5 1
   10    25    16 1
   11    26    10 1
   12    26    17 1
   13    27    18 1
   14    28    14 1
   15    28    19 1
   16    29    12 1
   17    30    13 1
   18    31    24 1
   19    32     1 1
   20    32    25 1
   21    33    21 1
   22    33    26 1
   23    34    22 1
   24    34    27 1
   25    35    23 1
   26    35    28 1
   27    36    12 1
   28    36    24 1
   29    37    13 1
   30    37    15 1
   31    38    31 1
   32    39    20 1
   33    39    32 1
   34    40     2 1
   35    40    33 1
   36    41     3 1
   37    41    34 1
   38    42     4 1
   39    42    35 1
   40    43    38 1
   41    44     5 1
   42    44    17 1
   43    44    39 1
   44    45    10 1
   45    45    18 1
   46    45    40 1
   47    46    19 1
   48    46    41 1
   49    47    14 1
   50    47    16 1
   51    47    42 1
   52    48    38 1
   53    49    48 1
   54    50    49 1
   55    51    50 1
   56    52    51 1
   57    53    51 1
   58    54    53 1
   59    55    54 1
   60    56    55 1
   61    57    56 1
   62    58    56 1
   63    59    58 1
   64    60    59 1
   65    61    60 1
   66    62    61 1
   67    63    61 1
   68    64    27 1
   69    64    46 1
   70    65     5 1
   71    65    10 1
   72    65    64 1
   73    65    14 1
   74    66    23 1
   75    67    23 1
   76    68    23 1
   77    69    22 1
   78    70    22 1
   79    71    22 1
   80    72    21 1
   81    73    21 1
   82    74    21 1
   83    75    20 1
   84    76    20 1
   85    77    20 1
   86    78    15 1
   87    79    15 1
   88    80    15 1
   89    81     8 1
   90    82     8 1
   91    83     8 1
   92    84     7 1
   93    85     7 1
   94    86     6 1
   95    87     6 1
   96    88     3 1
   97    89     3 1
   98    90     1 1
   99    91     1 1
  100    92    63 1
  101    93    63 1
  102    94    63 1
  103    95    62 1
  104    96    62 1
  105    97    62 1
  106    98    60 1
  107    99    60 1
  108   100    59 1
  109   101    59 1
  110   102    58 1
  111   103    58 1
  112   104    57 1
  113   105    57 1
  114   106    57 1
  115   107    55 1
  116   108    55 1
  117   109    54 1
  118   110    54 1
  119   111    53 1
  120   112    53 1
  121   113    19 1
  122   114    18 1
  123   115    17 1
  124   116     9 1
  125   117     2 1
  126   118    52 1
  127   119    52 1
  128   120    52 1
  129   121    51 1
  130   122    50 1
  131   123    50 1
  132   124    49 1
  133   125    49 1
  134   126    48 1
  135   127    48 1
  136   128    43 1
  137   129    43 1
  138   130    43 1
  139   131    39 1
  140   132    32 1
  141   133    31 1
  142   134    61 1
  143   135    56 1
  144   136    24 1
  145   137    24 1
  146   139   138 1
  147   140   139 1
  148   141   140 1
  149   142   140 1
  150   143   142 1
  151   144   138 1
  152   144   143 1
  153   145   144 1
  154   146   145 1
  155   147   146 1
  156   148   147 1
  157   149   148 1
  158   150   149 1
  159   151   150 1
  160   152   151 1
  161   153   152 1
  162   154   138 1
  163   155   138 1
  164   156   143 1
  165   157   147 1
  166   158   151 1
  167   160   159 1
  168   161   160 1
  169   162   161 1
  170   163   161 1
  171   164   163 1
  172   165   159 1
  173   165   164 1
  174   166   165 1
  175   167   166 1
  176   168   167 1
  177   169   168 1
  178   170   169 1
  179   171   170 1
  180   172   171 1
  181   173   172 1
  182   174   153 1
  183   174   173 1
  184   175   159 1
  185   176   159 1
  186   177   164 1
  187   178   168 1
  188   179   172 1
  189   180   179 1
  190   181   179 1
  191   182   179 1
  192   183   178 1
  193   184   178 1
  194   185   178 1
  195   186   177 1
  196   187   177 1
  197   188   177 1
  198   189   176 1
  199   190   176 1
  200   191   176 1
  201   192   175 1
  202   193   175 1
  203   194   175 1
  204   195   160 1
  205   196   160 1
  206   197   158 1
  207   198   158 1
  208   199   158 1
  209   200   157 1
  210   201   157 1
  211   202   157 1
  212   203   156 1
  213   204   156 1
  214   205   156 1
  215   206   155 1
  216   207   155 1
  217   208   155 1
  218   209   154 1
  219   210   154 1
  220   211   154 1
  221   212   141 1
  222   213   146 1
  223   214   145 1
  224   215   142 1
  225   216   142 1
  226   217   174 1
  227   218   173 1
  228   219   171 1
  229   220   170 1
  230   221   169 1
  231   222   140 1
  232   223   167 1
  233   224   166 1
  234   225   165 1
  235   226   163 1
  236   227   161 1
  237   228   139 1
  238   229   139 1
  239   230   153 1
  240   231   152 1
  241   232   150 1
  242   233   149 1
  243   234   148 1
  244   235   162 1
  245   65    153 1
  246   65    174 1
@<TRIPOS>SUBSTRUCTURE
      1 CLA               1 ****               0 ****  **** 
      2 LUT             138 ****               0 ****  **** 
