@<TRIPOS>MOLECULE
Cpptraj generated mol2 file.
  235   246     2     0     0
SMALL
USER_CHARGES


@<TRIPOS>ATOM
      1 CAA        78.0780   57.3114   34.9546 a2         1 CLA     -0.055900
      2 CAB        77.2257   61.4553   43.9246 c8         1 CLA     -0.148500
      3 CAC        70.6742   56.7781   43.1451 a2         1 CLA     -0.012600
      4 CAD        74.2417   54.5076   35.9842 ck         1 CLA      0.398800
      5 NA         76.9803   57.7265   38.4940 ns         1 CLA     -0.225500
      6 CBA        79.4840   57.4087   34.2351 a2         1 CLA     -0.135000
      7 CBB        78.2272   61.7955   44.7918 c0         1 CLA     -0.395200
      8 CBC        70.7862   55.2963   43.3289 a3         1 CLA     -0.037700
      9 CBD        75.6838   55.1829   35.8129 a1         1 CLA     -0.053900
     10 NB         76.5965   59.1915   41.1133 nm         1 CLA     -0.295700
     11 OBD        73.7482   53.6896   35.2142 o2         1 CLA     -0.494600
     12 CGA        80.1294   55.9972   33.9177 c4         1 CLA      0.827000
     13 CGD        76.6446   53.9853   35.7628 c4         1 CLA      0.655300
     14 ND         74.3309   56.4749   39.0147 nm         1 CLA     -0.291600
     15 CED        76.7810   51.6299   36.2476 a3         1 CLA      0.005400
     16 CHA        75.8560   56.0655   37.1191 cs         1 CLA     -0.123800
     17 CHB        78.5370   59.3572   39.5025 aa         1 CLA     -0.291900
     18 CHC        75.1823   59.2620   43.0583 aa         1 CLA     -0.090400
     19 CHD        72.3170   56.3241   40.3789 aa         1 CLA     -0.052000
     20 CMA        80.4355   57.4846   37.7616 a3         1 CLA     -0.230700
     21 CMB        79.6079   61.4865   41.5490 a3         1 CLA     -0.180800
     22 CMC        72.5780   58.7153   44.8731 a3         1 CLA     -0.134000
     23 CMD        71.4876   54.1269   38.2347 a3         1 CLA     -0.141100
     24 C1         82.0317   54.7359   34.5081 a2         1 CLA      0.023000
     25 C1A        76.8754   56.9647   37.3557 ac         1 CLA     -0.015100
     26 C1B        77.8295   59.6872   40.6861 cr         1 CLA      0.054700
     27 C1C        74.0900   58.4106   42.7244 cn         1 CLA     -0.005600
     28 C1D        73.0912   55.9619   39.2778 ap         1 CLA     -0.047300
     29 O1A        79.6339   55.1453   33.2275 o2         1 CLA     -0.610800
     30 O1D        77.6186   53.8514   35.0345 o2         1 CLA     -0.558200
     31 C2         81.3742   53.8228   35.5723 c8         1 CLA     -0.325100
     32 C2A        78.2141   57.0507   36.5319 a1         1 CLA      0.098600
     33 C2B        78.2746   60.7017   41.6209 cb         1 CLA      0.088500
     34 C2C        72.9089   58.1740   43.5136 cb         1 CLA      0.053700
     35 C2D        72.6811   55.0006   38.2401 cb         1 CLA      0.058900
     36 O2A        81.2897   55.9641   34.5596 o1         1 CLA     -0.437200
     37 O2D        76.2214   52.9307   36.5743 o1         1 CLA     -0.357600
     38 C3         82.0756   53.2337   36.5595 c5         1 CLA      0.031200
     39 C3A        79.1014   58.1293   37.3001 a1         1 CLA      0.166800
     40 C3B        77.3379   60.6418   42.6990 cb         1 CLA      0.035000
     41 C3C        72.0136   57.4111   42.7092 cb         1 CLA     -0.089900
     42 C3D        73.6908   55.0538   37.2901 cb         1 CLA     -0.035900
     43 C4         82.6414   51.8507   36.4804 a3         1 CLA     -0.053300
     44 C4A        78.1880   58.4332   38.5006 ac         1 CLA      0.001800
     45 C4B        76.3127   59.6123   42.3298 cn         1 CLA     -0.020900
     46 C4C        72.7340   57.1174   41.4698 cr         1 CLA     -0.044400
     47 C4D        74.7206   55.9383   37.8703 c6         1 CLA     -0.046000
     48 C5         82.3617   53.9609   37.8035 a2         1 CLA     -0.070400
     49 C6         83.3810   55.0994   37.7100 a2         1 CLA      0.043900
     50 C7         83.6938   55.7189   39.0579 a2         1 CLA     -0.150000
     51 C8         84.7973   56.8403   39.1486 a1         1 CLA      0.064200
     52 C9         86.1430   56.2320   38.6080 a3         1 CLA     -0.259300
     53 C10        85.0705   57.3130   40.6029 a2         1 CLA     -0.071900
     54 C11        83.8655   58.0557   41.2005 a2         1 CLA      0.014500
     55 C12        84.0388   58.8283   42.5529 a2         1 CLA     -0.112100
     56 C13        84.6478   57.9639   43.7032 a1         1 CLA      0.089200
     57 C14        83.8995   56.6931   44.0030 a3         1 CLA     -0.239100
     58 C15        84.8929   58.8543   44.9842 a2         1 CLA     -0.102200
     59 C16        83.6374   59.6922   45.3974 a2         1 CLA      0.023900
     60 C17        83.9217   60.6603   46.5607 a2         1 CLA     -0.105700
     61 C18        82.7453   61.5947   46.9844 a1         1 CLA      0.206800
     62 C19        81.6442   60.8043   47.7252 a3         1 CLA     -0.280100
     63 C20        83.1853   62.8411   47.8648 a3         1 CLA     -0.280100
     64 NC         73.9992   57.7415   41.5085 nx         1 CLA     -0.309200
     65 MG         75.5020   57.7916   40.0013 mg         1 CLA      0.895000
     66 HMD3       71.6339   53.2259   37.6063 dc         1 CLA      0.064300
     67 HMD2       71.5430   53.8028   39.2304 dc         1 CLA      0.064300
     68 HMD1       70.6235   54.6688   37.9967 dc         1 CLA      0.064300
     69 HMC3       73.2678   59.4875   45.2190 dc         1 CLA      0.052100
     70 HMC2       71.5689   59.0403   44.8995 dc         1 CLA      0.052100
     71 HMC1       72.7261   57.9764   45.6566 dc         1 CLA      0.052100
     72 HMB3       79.6952   62.3012   42.3025 dc         1 CLA      0.063600
     73 HMB2       80.3344   60.7175   41.6590 dc         1 CLA      0.063600
     74 HMB1       79.7034   61.7942   40.5321 dc         1 CLA      0.063600
     75 HMA3       80.7724   58.2338   38.4606 dc         1 CLA      0.058300
     76 HMA2       80.2550   56.5829   38.1932 dc         1 CLA      0.058300
     77 HMA1       81.2248   57.3496   37.0131 dc         1 CLA      0.058300
     78 HED3       77.8438   51.6179   36.4376 dc         1 CLA      0.079300
     79 HED2       76.3015   50.9249   36.8884 dc         1 CLA      0.079300
     80 HED1       76.5105   51.2995   35.2249 dc         1 CLA      0.079300
     81 HBC3       69.9145   55.1061   43.9635 dc         1 CLA      0.016300
     82 HBC2       70.7590   54.7023   42.4561 dc         1 CLA      0.016300
     83 HBC1       71.7312   55.1100   43.8634 dc         1 CLA      0.016300
     84 HBB2       77.9455   62.3065   45.7103 da         1 CLA      0.183000
     85 HBB1       79.3088   61.5871   44.6014 da         1 CLA      0.183000
     86 HBA2       79.3726   57.8610   33.2663 dc         1 CLA      0.029400
     87 HBA1       80.1413   58.1953   34.7183 dc         1 CLA      0.029400
     88 HAC2       70.3674   57.1627   44.1539 dc         1 CLA      0.029300
     89 HAC1       69.9439   57.0129   42.4125 dc         1 CLA      0.029300
     90 HAA2       77.6618   56.4543   34.4359 dc         1 CLA      0.028700
     91 HAA1       77.4354   58.1887   34.8533 dc         1 CLA      0.028700
     92 H203       84.0031   62.5331   48.4686 dc         1 CLA      0.065600
     93 H202       83.6776   63.6512   47.2422 dc         1 CLA      0.065600
     94 H201       82.4625   63.1772   48.6218 dc         1 CLA      0.065600
     95 H193       80.7837   61.3909   47.7776 dc         1 CLA      0.065600
     96 H192       81.3942   60.0213   47.0116 dc         1 CLA      0.065600
     97 H191       81.9202   60.4008   48.7019 dc         1 CLA      0.065600
     98 H172       84.2266   60.1410   47.3827 dc         1 CLA      0.027600
     99 H171       84.7437   61.3166   46.2507 dc         1 CLA      0.027600
    100 H162       83.4965   60.2955   44.4801 dc         1 CLA      0.002900
    101 H161       82.8306   59.0075   45.6219 dc         1 CLA      0.002900
    102 H152       85.3668   58.2985   45.8085 dc         1 CLA      0.029100
    103 H151       85.6173   59.6401   44.7118 dc         1 CLA      0.029100
    104 H143       84.0476   56.0049   43.1139 dc         1 CLA      0.063600
    105 H142       84.1588   56.2042   44.9519 dc         1 CLA      0.063600
    106 H141       82.8713   56.9997   44.0845 dc         1 CLA      0.063600
    107 H122       84.6043   59.7018   42.2393 dc         1 CLA      0.032500
    108 H121       83.0176   59.1541   42.8663 dc         1 CLA      0.032500
    109 H112       83.4883   58.8066   40.5280 dc         1 CLA      0.006600
    110 H111       83.0426   57.2942   41.3839 dc         1 CLA      0.006600
    111 H102       85.1527   56.3367   41.1145 dc         1 CLA      0.024100
    112 H101       86.0562   57.8055   40.6192 dc         1 CLA      0.024100
    113 HHD        71.2710   56.0313   40.4383 da         1 CLA      0.174300
    114 HHC        75.1253   59.7020   44.1031 da         1 CLA      0.136800
    115 HHB        79.4325   59.9609   39.4149 da         1 CLA      0.138300
    116 HBD        75.6820   55.7025   34.8287 dc         1 CLA      0.107700
    117 HAB        76.2177   61.8432   44.2056 da         1 CLA      0.155200
    118 H93        86.1720   56.0511   37.5414 dc         1 CLA      0.069500
    119 H92        86.9011   56.9567   38.8487 dc         1 CLA      0.069500
    120 H91        86.2768   55.3087   39.0135 dc         1 CLA      0.069500
    121 H8         84.5246   57.6978   38.5121 dc         1 CLA      0.029300
    122 H72        82.7385   56.1646   39.3672 dc         1 CLA      0.044400
    123 H71        83.8969   54.8452   39.6519 dc         1 CLA      0.044400
    124 H62        84.2991   54.7405   37.2656 dc         1 CLA      0.015600
    125 H61        82.9782   55.8652   37.0515 dc         1 CLA      0.015600
    126 H52        81.3915   54.3887   38.1696 dc         1 CLA      0.033200
    127 H51        82.7071   53.2827   38.5276 dc         1 CLA      0.033200
    128 H43        82.2022   51.2474   37.1788 dc         1 CLA      0.037000
    129 H42        82.4860   51.3883   35.4549 dc         1 CLA      0.037000
    130 H41        83.6466   51.8397   36.7225 dc         1 CLA      0.037000
    131 H3A        79.1016   59.0629   36.7140 dc         1 CLA      0.041100
    132 H2A        78.7692   56.1305   36.6355 dc         1 CLA      0.083100
    133 H2         80.2865   53.7949   35.6333 da         1 CLA      0.180900
    134 H18        82.4632   62.0874   46.0366 dc         1 CLA     -0.003900
    135 H13        85.6088   57.6796   43.2031 dc         1 CLA      0.019700
    136 H12        82.1008   54.0957   33.5892 dc         1 CLA      0.120400
    137 H11        83.0064   55.0362   34.7196 dc         1 CLA      0.120400
    138 C1         68.1664   60.8716   49.9029 Z1         2 LUT      0.509236
    139 C2         66.9818   60.7580   50.9459 Z2         2 LUT     -0.434695
    140 C3         66.2058   62.0406   51.3431 Z3         2 LUT      0.437453
    141 O3         66.7302   62.5601   52.5782 S1         2 LUT     -0.547129
    142 C4         66.2278   63.1233   50.2789 Z4         2 LUT     -0.468603
    143 C5         66.7919   62.7639   48.9062 Z5         2 LUT      0.279246
    144 C6         67.7375   61.7933   48.7608 Z6         2 LUT     -0.305473
    145 C7         68.0904   61.3177   47.3846 Z7         2 LUT      0.069402
    146 C8         69.0367   61.8827   46.5584 Z8         2 LUT     -0.191631
    147 C9         69.7063   61.2587   45.3621 Z9         2 LUT      0.196698
    148 C10        70.7609   61.9506   44.9250 Y1         2 LUT     -0.208611
    149 C11        71.4789   61.7064   43.6945 Y2         2 LUT      0.030784
    150 C12        72.5995   62.3555   43.3416 Y3         2 LUT     -0.220316
    151 C13        73.4370   62.1691   42.1453 Y4         2 LUT      0.215937
    152 C14        74.5036   62.9530   42.0583 Y5         2 LUT     -0.185793
    153 C15        75.5839   62.9149   41.1077 Y6         2 LUT     -0.057835
    154 C16        68.8282   59.5032   49.5096 Y7         2 LUT     -0.405615
    155 C17        69.3646   61.6416   50.5979 Y7         2 LUT     -0.405615
    156 C18        66.2017   63.6942   47.8433 Y9         2 LUT     -0.369639
    157 C19        68.8647   60.1509   44.7106 W1         2 LUT     -0.333362
    158 C20        72.9585   61.1925   41.1126 W2         2 LUT     -0.323439
    159 C21        86.8225   64.5602   35.4771 Z1         2 LUT      0.406104
    160 C22        87.6132   64.0274   34.2417 Z2         2 LUT     -0.404965
    161 C23        87.8760   65.0385   33.1934 Z3         2 LUT      0.391255
    162 O23        88.6114   64.4807   32.0948 S1         2 LUT     -0.528210
    163 C24        86.5476   65.8567   32.8942 W6         2 LUT     -0.258361
    164 C25        85.4279   65.8485   33.7024 Z5         2 LUT      0.133546
    165 C26        85.3893   65.1532   35.0359 W8         2 LUT     -0.147008
    166 C27        84.5577   65.8504   36.0019 Z7         2 LUT      0.023843
    167 C28        83.7363   65.2780   36.8776 Z8         2 LUT     -0.216987
    168 C29        83.0071   65.8139   38.0201 Z9         2 LUT      0.206524
    169 C30        82.0886   65.0073   38.6001 Y1         2 LUT     -0.215556
    170 C31        81.1320   65.2961   39.6025 Y2         2 LUT      0.025142
    171 C32        80.0300   64.4524   39.7747 Y3         2 LUT     -0.212209
    172 C33        78.9483   64.6274   40.6820 Y4         2 LUT      0.240937
    173 C34        77.8405   63.7412   40.5324 Y5         2 LUT     -0.218862
    174 C35        76.6586   63.7525   41.2968 Y6         2 LUT     -0.023547
    175 C36        87.6742   65.6390   36.1760 Y7         2 LUT     -0.393485
    176 C37        86.6206   63.4119   36.5234 Y7         2 LUT     -0.393485
    177 C38        84.1544   66.3454   33.0934 Y9         2 LUT     -0.387526
    178 C39        83.0732   67.3125   38.3043 W1         2 LUT     -0.322618
    179 C40        79.0961   65.5857   41.9475 W2         2 LUT     -0.358472
    180 H403       78.2514   66.2221   42.0653 R7         2 LUT      0.097720
    181 H402       79.1701   64.8921   42.8187 R7         2 LUT      0.097720
    182 H401       79.9302   66.2367   41.9956 R7         2 LUT      0.097720
    183 H393       82.9043   67.9057   37.4027 R4         2 LUT      0.082505
    184 H392       82.4033   67.5984   39.1807 R4         2 LUT      0.082505
    185 H391       84.0527   67.6829   38.6454 R4         2 LUT      0.082505
    186 H383       83.3448   65.6359   33.1054 R1         2 LUT      0.104030
    187 H382       83.8084   67.2717   33.6633 R1         2 LUT      0.104030
    188 H381       84.2760   66.5500   32.0010 R1         2 LUT      0.104030
    189 H373       87.6090   63.0759   36.8955 T4         2 LUT      0.089537
    190 H372       86.0215   63.7763   37.3753 T4         2 LUT      0.089537
    191 H371       86.1048   62.5465   36.0625 T4         2 LUT      0.089537
    192 H363       87.8641   66.5084   35.5117 T4         2 LUT      0.089537
    193 H362       87.1220   66.1319   37.0400 T4         2 LUT      0.089537
    194 H361       88.6603   65.1836   36.4039 T4         2 LUT      0.089537
    195 H222       88.6009   63.5083   34.5976 U2         2 LUT      0.127376
    196 H221       86.9877   63.2494   33.7537 U2         2 LUT      0.127376
    197 H203       72.4620   61.6462   40.2688 R7         2 LUT      0.087068
    198 H202       73.7179   60.6037   40.6440 R7         2 LUT      0.087068
    199 H201       72.2245   60.4990   41.6125 R7         2 LUT      0.087068
    200 H193       68.9697   59.1300   45.2320 R4         2 LUT      0.089716
    201 H192       67.8035   60.4433   44.6517 R4         2 LUT      0.089716
    202 H191       69.1636   60.0736   43.6758 R4         2 LUT      0.089716
    203 H183       67.0619   63.7237   47.0976 R1         2 LUT      0.094572
    204 H182       65.3813   63.2464   47.3974 R1         2 LUT      0.094572
    205 H181       65.9896   64.7044   48.1939 R1         2 LUT      0.094572
    206 H173       69.6379   61.1561   51.5003 T4         2 LUT      0.093752
    207 H172       70.2714   61.7116   49.9716 T4         2 LUT      0.093752
    208 H171       69.0959   62.7072   50.8982 T4         2 LUT      0.093752
    209 H163       68.3670   58.8353   48.7688 T4         2 LUT      0.093752
    210 H162       69.8388   59.6972   49.1705 T4         2 LUT      0.093752
    211 H161       68.9897   58.9010   50.4076 T4         2 LUT      0.093752
    212 HO3        66.4281   62.0207   53.3271 Q1         2 LUT      0.300121
    213 H8         69.3879   62.8020   47.0386 U7         2 LUT      0.080784
    214 H7         67.8894   60.3000   47.0682 U6         2 LUT      0.042190
    215 H42        65.2549   63.5692   50.1731 U5         2 LUT      0.145166
    216 H41        66.9414   63.8775   50.5638 U5         2 LUT      0.145166
    217 H35        76.5474   64.3301   42.2159 T3         2 LUT      0.077919
    218 H34        77.8931   63.0098   39.6827 T2         2 LUT      0.073626
    219 H32        79.9981   63.6366   39.0499 T1         2 LUT      0.092510
    220 H31        81.0769   66.2891   40.0746 U9         2 LUT      0.070048
    221 H30        82.0688   63.9518   38.1104 U8         2 LUT      0.085442
    222 H3         65.1614   61.7088   51.5067 U3         2 LUT     -0.031596
    223 H28        83.5717   64.2123   36.5644 U7         2 LUT      0.084728
    224 H27        84.8099   66.8963   36.0863 U6         2 LUT      0.087291
    225 H26        84.8393   64.2012   34.8203 Q6         2 LUT      0.075325
    226 H24        86.4043   66.2037   31.8585 Q5         2 LUT      0.094482
    227 H23        88.6394   65.7644   33.5376 U3         2 LUT     -0.024869
    228 H22        66.1545   60.3625   50.4409 U2         2 LUT      0.127376
    229 H21        67.1907   60.2057   51.8467 U2         2 LUT      0.127376
    230 H15        75.6620   62.1693   40.3161 T3         2 LUT      0.093200
    231 H14        74.5362   63.7643   42.8245 T2         2 LUT      0.068865
    232 H12        73.0001   63.1772   43.9980 T1         2 LUT      0.095507
    233 H11        70.9608   60.9642   43.0662 U9         2 LUT      0.068930
    234 H10        71.1099   62.7774   45.4868 U8         2 LUT      0.083911
    235 H1         87.9966   64.2788   31.3619 Q1         2 LUT      0.297311
@<TRIPOS>BOND
    1     6     1 1
    2     7     2 1
    3     8     3 1
    4     9     4 1
    5    11     4 1
    6    12     6 1
    7    13     9 1
    8    16     9 1
    9    25     5 1
   10    25    16 1
   11    26    10 1
   12    26    17 1
   13    27    18 1
   14    28    14 1
   15    28    19 1
   16    29    12 1
   17    30    13 1
   18    31    24 1
   19    32     1 1
   20    32    25 1
   21    33    21 1
   22    33    26 1
   23    34    22 1
   24    34    27 1
   25    35    23 1
   26    35    28 1
   27    36    12 1
   28    36    24 1
   29    37    13 1
   30    37    15 1
   31    38    31 1
   32    39    20 1
   33    39    32 1
   34    40     2 1
   35    40    33 1
   36    41     3 1
   37    41    34 1
   38    42     4 1
   39    42    35 1
   40    43    38 1
   41    44     5 1
   42    44    17 1
   43    44    39 1
   44    45    10 1
   45    45    18 1
   46    45    40 1
   47    46    19 1
   48    46    41 1
   49    47    14 1
   50    47    16 1
   51    47    42 1
   52    48    38 1
   53    49    48 1
   54    50    49 1
   55    51    50 1
   56    52    51 1
   57    53    51 1
   58    54    53 1
   59    55    54 1
   60    56    55 1
   61    57    56 1
   62    58    56 1
   63    59    58 1
   64    60    59 1
   65    61    60 1
   66    62    61 1
   67    63    61 1
   68    64    27 1
   69    64    46 1
   70    65     5 1
   71    65    10 1
   72    65    64 1
   73    65    14 1
   74    66    23 1
   75    67    23 1
   76    68    23 1
   77    69    22 1
   78    70    22 1
   79    71    22 1
   80    72    21 1
   81    73    21 1
   82    74    21 1
   83    75    20 1
   84    76    20 1
   85    77    20 1
   86    78    15 1
   87    79    15 1
   88    80    15 1
   89    81     8 1
   90    82     8 1
   91    83     8 1
   92    84     7 1
   93    85     7 1
   94    86     6 1
   95    87     6 1
   96    88     3 1
   97    89     3 1
   98    90     1 1
   99    91     1 1
  100    92    63 1
  101    93    63 1
  102    94    63 1
  103    95    62 1
  104    96    62 1
  105    97    62 1
  106    98    60 1
  107    99    60 1
  108   100    59 1
  109   101    59 1
  110   102    58 1
  111   103    58 1
  112   104    57 1
  113   105    57 1
  114   106    57 1
  115   107    55 1
  116   108    55 1
  117   109    54 1
  118   110    54 1
  119   111    53 1
  120   112    53 1
  121   113    19 1
  122   114    18 1
  123   115    17 1
  124   116     9 1
  125   117     2 1
  126   118    52 1
  127   119    52 1
  128   120    52 1
  129   121    51 1
  130   122    50 1
  131   123    50 1
  132   124    49 1
  133   125    49 1
  134   126    48 1
  135   127    48 1
  136   128    43 1
  137   129    43 1
  138   130    43 1
  139   131    39 1
  140   132    32 1
  141   133    31 1
  142   134    61 1
  143   135    56 1
  144   136    24 1
  145   137    24 1
  146   139   138 1
  147   140   139 1
  148   141   140 1
  149   142   140 1
  150   143   142 1
  151   144   138 1
  152   144   143 1
  153   145   144 1
  154   146   145 1
  155   147   146 1
  156   148   147 1
  157   149   148 1
  158   150   149 1
  159   151   150 1
  160   152   151 1
  161   153   152 1
  162   154   138 1
  163   155   138 1
  164   156   143 1
  165   157   147 1
  166   158   151 1
  167   160   159 1
  168   161   160 1
  169   162   161 1
  170   163   161 1
  171   164   163 1
  172   165   159 1
  173   165   164 1
  174   166   165 1
  175   167   166 1
  176   168   167 1
  177   169   168 1
  178   170   169 1
  179   171   170 1
  180   172   171 1
  181   173   172 1
  182   174   153 1
  183   174   173 1
  184   175   159 1
  185   176   159 1
  186   177   164 1
  187   178   168 1
  188   179   172 1
  189   180   179 1
  190   181   179 1
  191   182   179 1
  192   183   178 1
  193   184   178 1
  194   185   178 1
  195   186   177 1
  196   187   177 1
  197   188   177 1
  198   189   176 1
  199   190   176 1
  200   191   176 1
  201   192   175 1
  202   193   175 1
  203   194   175 1
  204   195   160 1
  205   196   160 1
  206   197   158 1
  207   198   158 1
  208   199   158 1
  209   200   157 1
  210   201   157 1
  211   202   157 1
  212   203   156 1
  213   204   156 1
  214   205   156 1
  215   206   155 1
  216   207   155 1
  217   208   155 1
  218   209   154 1
  219   210   154 1
  220   211   154 1
  221   212   141 1
  222   213   146 1
  223   214   145 1
  224   215   142 1
  225   216   142 1
  226   217   174 1
  227   218   173 1
  228   219   171 1
  229   220   170 1
  230   221   169 1
  231   222   140 1
  232   223   167 1
  233   224   166 1
  234   225   165 1
  235   226   163 1
  236   227   161 1
  237   228   139 1
  238   229   139 1
  239   230   153 1
  240   231   152 1
  241   232   150 1
  242   233   149 1
  243   234   148 1
  244   235   162 1
  245   65    153 1
  246   65    174 1
@<TRIPOS>SUBSTRUCTURE
      1 CLA               1 ****               0 ****  **** 
      2 LUT             138 ****               0 ****  **** 
