@<TRIPOS>MOLECULE
Cpptraj generated mol2 file.
  235   246     2     0     0
SMALL
USER_CHARGES


@<TRIPOS>ATOM
      1 CAA        77.2853   57.4282   35.1755 a2         1 CLA     -0.055900
      2 CAB        76.8890   61.2578   44.2797 c8         1 CLA     -0.148500
      3 CAC        70.2084   57.0550   43.3798 a2         1 CLA     -0.012600
      4 CAD        73.1076   54.8902   36.1791 ck         1 CLA      0.398800
      5 NA         76.1525   58.1890   38.4641 ns         1 CLA     -0.225500
      6 CBA        78.5500   57.2202   34.3517 a2         1 CLA     -0.135000
      7 CBB        76.4196   60.6400   45.3378 c0         1 CLA     -0.395200
      8 CBC        70.3566   55.5197   43.6329 a3         1 CLA     -0.037700
      9 CBD        74.6267   55.4417   35.9996 a1         1 CLA     -0.053900
     10 NB         75.8365   59.5994   41.0384 nm         1 CLA     -0.295700
     11 OBD        72.5741   54.0320   35.4618 o2         1 CLA     -0.494600
     12 CGA        79.0026   55.6942   34.1186 c4         1 CLA      0.827000
     13 CGD        75.5487   54.2156   36.2304 c4         1 CLA      0.655300
     14 ND         73.2565   57.0630   38.9611 nm         1 CLA     -0.291600
     15 CED        75.9189   52.2105   37.5076 a3         1 CLA      0.005400
     16 CHA        74.8533   56.4832   37.1021 cs         1 CLA     -0.123800
     17 CHB        77.9392   59.5142   39.5615 aa         1 CLA     -0.291900
     18 CHC        74.3716   59.9219   42.9587 aa         1 CLA     -0.090400
     19 CHD        71.3932   56.9007   40.4618 aa         1 CLA     -0.052000
     20 CMA        79.6622   57.4210   37.8978 a3         1 CLA     -0.230700
     21 CMB        79.1423   61.3817   41.8125 a3         1 CLA     -0.180800
     22 CMC        71.9783   59.2802   44.9160 a3         1 CLA     -0.134000
     23 CMD        70.2216   54.9488   38.3518 a3         1 CLA     -0.141100
     24 C1         80.1092   53.9126   35.2214 a2         1 CLA      0.023000
     25 C1A        76.0241   57.2811   37.3920 ac         1 CLA     -0.015100
     26 C1B        77.2075   59.9259   40.7445 cr         1 CLA      0.054700
     27 C1C        73.2848   59.0608   42.6808 cn         1 CLA     -0.005600
     28 C1D        72.0349   56.5499   39.2698 ap         1 CLA     -0.047300
     29 O1A        78.4991   54.9088   33.3540 o2         1 CLA     -0.610800
     30 O1D        76.6122   54.0245   35.6719 o2         1 CLA     -0.558200
     31 C2         80.7227   53.6833   36.5506 c8         1 CLA     -0.325100
     32 C2A        77.3717   57.1195   36.6730 a1         1 CLA      0.098600
     33 C2B        77.7340   60.7449   41.8389 cb         1 CLA      0.088500
     34 C2C        72.1693   58.7712   43.5157 cb         1 CLA      0.053700
     35 C2D        71.5382   55.6049   38.3035 cb         1 CLA      0.058900
     36 O2A        79.8474   55.3337   35.1635 o1         1 CLA     -0.437200
     37 O2D        75.0395   53.3739   37.1922 o1         1 CLA     -0.357600
     38 C3         81.7449   52.7874   36.8385 c5         1 CLA      0.031200
     39 C3A        78.3708   58.1125   37.4441 a1         1 CLA      0.166800
     40 C3B        76.7851   60.7815   42.8903 cb         1 CLA      0.035000
     41 C3C        71.3806   57.8164   42.8193 cb         1 CLA     -0.089900
     42 C3D        72.6255   55.4856   37.4361 cb         1 CLA     -0.035900
     43 C4         81.4438   51.3734   37.2545 a3         1 CLA     -0.053300
     44 C4A        77.4501   58.6495   38.5699 ac         1 CLA      0.001800
     45 C4B        75.6089   60.0835   42.2889 cn         1 CLA     -0.020900
     46 C4C        71.9140   57.7337   41.5163 cr         1 CLA     -0.044400
     47 C4D        73.6294   56.3880   37.8619 c6         1 CLA     -0.046000
     48 C5         83.2072   53.0732   36.5448 a2         1 CLA     -0.070400
     49 C6         83.7475   54.5101   36.7678 a2         1 CLA      0.043900
     50 C7         83.6983   54.8818   38.2755 a2         1 CLA     -0.150000
     51 C8         83.9926   56.3251   38.6083 a1         1 CLA      0.064200
     52 C9         85.0955   56.9441   37.7949 a3         1 CLA     -0.259300
     53 C10        84.0696   56.7438   40.0744 a2         1 CLA     -0.071900
     54 C11        82.8706   56.3811   40.9857 a2         1 CLA      0.014500
     55 C12        82.8261   57.3828   42.2229 a2         1 CLA     -0.112100
     56 C13        84.1053   57.6272   43.2034 a1         1 CLA      0.089200
     57 C14        84.3624   56.3364   44.0205 a3         1 CLA     -0.239100
     58 C15        83.9096   58.8309   44.2027 a2         1 CLA     -0.102200
     59 C16        82.5817   58.8188   44.9449 a2         1 CLA      0.023900
     60 C17        82.5959   59.9498   45.9447 a2         1 CLA     -0.105700
     61 C18        81.2528   60.4814   46.4691 a1         1 CLA      0.206800
     62 C19        81.4669   61.3537   47.7292 a3         1 CLA     -0.280100
     63 C20        80.3151   61.0724   45.3430 a3         1 CLA     -0.280100
     64 NC         73.0975   58.4034   41.4815 nx         1 CLA     -0.309200
     65 MG         74.5120   58.5290   39.8816 mg         1 CLA      0.895000
     66 HMD3       69.6273   55.5625   37.6908 dc         1 CLA      0.064300
     67 HMD2       70.4169   54.0167   37.8125 dc         1 CLA      0.064300
     68 HMD1       69.8588   54.6739   39.3659 dc         1 CLA      0.064300
     69 HMC3       72.2945   58.5879   45.7470 dc         1 CLA      0.052100
     70 HMC2       72.5261   60.2125   45.0342 dc         1 CLA      0.052100
     71 HMC1       70.9094   59.5311   45.1861 dc         1 CLA      0.052100
     72 HMB3       79.1688   62.2490   42.4021 dc         1 CLA      0.063600
     73 HMB2       79.8027   60.5899   42.0276 dc         1 CLA      0.063600
     74 HMB1       79.2411   61.8073   40.7949 dc         1 CLA      0.063600
     75 HMA3       80.1219   56.9008   37.1097 dc         1 CLA      0.058300
     76 HMA2       80.3315   58.2604   38.2023 dc         1 CLA      0.058300
     77 HMA1       79.6110   56.7638   38.7956 dc         1 CLA      0.058300
     78 HED3       75.9722   51.6348   36.6331 dc         1 CLA      0.079300
     79 HED2       76.9877   52.4812   37.6032 dc         1 CLA      0.079300
     80 HED1       75.4084   51.7549   38.3627 dc         1 CLA      0.079300
     81 HBC3       71.3770   55.2551   43.9778 dc         1 CLA      0.016300
     82 HBC2       69.4985   55.2761   44.3572 dc         1 CLA      0.016300
     83 HBC1       70.1553   54.9578   42.7788 dc         1 CLA      0.016300
     84 HBB2       76.5652   61.0864   46.3554 da         1 CLA      0.183000
     85 HBB1       75.9095   59.6373   45.2866 da         1 CLA      0.183000
     86 HBA2       78.4571   57.6711   33.3056 dc         1 CLA      0.029400
     87 HBA1       79.3937   57.6459   34.8512 dc         1 CLA      0.029400
     88 HAC2       70.0325   57.4179   44.4059 dc         1 CLA      0.029300
     89 HAC1       69.2549   57.1573   42.8124 dc         1 CLA      0.029300
     90 HAA2       76.4573   56.8902   34.6926 dc         1 CLA      0.028700
     91 HAA1       76.9669   58.4697   34.8915 dc         1 CLA      0.028700
     92 H203       80.1840   60.3665   44.5711 dc         1 CLA      0.065600
     93 H202       79.3219   61.2546   45.7470 dc         1 CLA      0.065600
     94 H201       80.7837   61.9573   44.9047 dc         1 CLA      0.065600
     95 H193       80.5036   61.9084   47.8297 dc         1 CLA      0.065600
     96 H192       81.7457   60.7266   48.5761 dc         1 CLA      0.065600
     97 H191       82.2905   62.0250   47.5230 dc         1 CLA      0.065600
     98 H172       83.1165   59.6542   46.8838 dc         1 CLA      0.027600
     99 H171       83.1012   60.8883   45.5355 dc         1 CLA      0.027600
    100 H162       81.8028   58.8524   44.1984 dc         1 CLA      0.002900
    101 H161       82.4720   57.8553   45.4996 dc         1 CLA      0.002900
    102 H152       84.7695   58.7880   44.9580 dc         1 CLA      0.029100
    103 H151       83.9577   59.7709   43.7011 dc         1 CLA      0.029100
    104 H143       84.5889   55.5835   43.3341 dc         1 CLA      0.063600
    105 H142       85.2545   56.5119   44.6736 dc         1 CLA      0.063600
    106 H141       83.5415   56.0322   44.6876 dc         1 CLA      0.063600
    107 H122       82.5419   58.2474   41.6421 dc         1 CLA      0.032500
    108 H121       81.9797   57.0829   42.8866 dc         1 CLA      0.032500
    109 H112       81.9801   56.4510   40.3625 dc         1 CLA      0.006600
    110 H111       82.9104   55.2796   41.3353 dc         1 CLA      0.006600
    111 H102       84.9137   56.2874   40.5512 dc         1 CLA      0.024100
    112 H101       84.2212   57.8646   40.0510 dc         1 CLA      0.024100
    113 HHD        70.4602   56.3919   40.5716 da         1 CLA      0.174300
    114 HHC        74.3383   60.5723   43.8454 da         1 CLA      0.136800
    115 HHB        78.9434   59.9508   39.4657 da         1 CLA      0.138300
    116 HBD        74.5587   55.8548   34.9977 dc         1 CLA      0.107700
    117 HAB        77.4373   62.2041   44.3392 da         1 CLA      0.155200
    118 H93        85.8055   56.1287   37.6406 dc         1 CLA      0.069500
    119 H92        84.6580   57.1468   36.8272 dc         1 CLA      0.069500
    120 H91        85.4706   57.8874   38.2523 dc         1 CLA      0.069500
    121 H8         83.0827   56.8903   38.2672 dc         1 CLA      0.029300
    122 H72        82.8292   54.4609   38.7368 dc         1 CLA      0.044400
    123 H71        84.4379   54.2858   38.7561 dc         1 CLA      0.044400
    124 H62        84.8009   54.5775   36.4968 dc         1 CLA      0.015600
    125 H61        83.1051   55.2260   36.1925 dc         1 CLA      0.015600
    126 H52        83.8123   52.4025   37.1215 dc         1 CLA      0.033200
    127 H51        83.3144   52.7540   35.5093 dc         1 CLA      0.033200
    128 H43        81.3127   50.7592   36.3483 dc         1 CLA      0.037000
    129 H42        82.2863   50.9962   37.8874 dc         1 CLA      0.037000
    130 H41        80.5009   51.3621   37.8420 dc         1 CLA      0.037000
    131 H3A        78.6090   58.9065   36.7212 dc         1 CLA      0.041100
    132 H2A        77.7162   56.0937   36.7562 dc         1 CLA      0.083100
    133 H2         80.5401   54.3880   37.3288 da         1 CLA      0.180900
    134 H18        80.6553   59.6139   46.8469 dc         1 CLA     -0.003900
    135 H13        85.0072   57.8931   42.6107 dc         1 CLA      0.019700
    136 H12        79.2554   53.3047   35.0930 dc         1 CLA      0.120400
    137 H11        80.7346   53.5133   34.3566 dc         1 CLA      0.120400
    138 C1         67.2774   60.8654   50.3969 Z1         2 LUT      0.509236
    139 C2         65.9769   60.9233   51.2099 Z2         2 LUT     -0.434695
    140 C3         65.3929   62.2474   51.6139 Z3         2 LUT      0.437453
    141 O3         65.8757   62.4377   52.9729 S1         2 LUT     -0.547129
    142 C4         65.8730   63.3307   50.7196 Z4         2 LUT     -0.468603
    143 C5         66.1513   62.8610   49.3545 Z5         2 LUT      0.279246
    144 C6         66.9712   61.7650   49.1631 Z6         2 LUT     -0.305473
    145 C7         67.1826   61.1882   47.7868 Z7         2 LUT      0.069402
    146 C8         67.7523   61.8684   46.7824 Z8         2 LUT     -0.191631
    147 C9         68.3390   61.3584   45.6015 Z9         2 LUT      0.196698
    148 C10        69.4137   61.9890   45.0331 Y1         2 LUT     -0.208611
    149 C11        70.1525   61.8358   43.7929 Y2         2 LUT      0.030784
    150 C12        71.1906   62.6517   43.4743 Y3         2 LUT     -0.220316
    151 C13        72.1304   62.6864   42.3377 Y4         2 LUT      0.215937
    152 C14        73.2382   63.5076   42.4152 Y5         2 LUT     -0.185793
    153 C15        74.3421   63.6199   41.5004 Y6         2 LUT     -0.057835
    154 C16        67.5856   59.3899   50.1414 Y7         2 LUT     -0.405615
    155 C17        68.4511   61.3527   51.2178 Y7         2 LUT     -0.405615
    156 C18        65.7034   63.7699   48.1503 Y9         2 LUT     -0.369639
    157 C19        67.7668   60.1241   44.8511 W1         2 LUT     -0.333362
    158 C20        71.7750   61.8113   41.1349 W2         2 LUT     -0.323439
    159 C21        86.0613   64.7490   35.9857 Z1         2 LUT      0.406104
    160 C22        86.7804   64.1246   34.7173 Z2         2 LUT     -0.404965
    161 C23        86.9667   65.1053   33.5428 Z3         2 LUT      0.391255
    162 O23        87.3496   64.2551   32.4622 S1         2 LUT     -0.528210
    163 C24        85.8140   66.0628   33.3890 W6         2 LUT     -0.258361
    164 C25        84.7429   66.1557   34.2188 Z5         2 LUT      0.133546
    165 C26        84.6239   65.2579   35.5001 W8         2 LUT     -0.147008
    166 C27        83.8718   65.8474   36.6069 Z7         2 LUT      0.023843
    167 C28        82.6652   65.4740   37.0642 Z8         2 LUT     -0.216987
    168 C29        81.8919   66.1622   38.1258 Z9         2 LUT      0.206524
    169 C30        80.9915   65.2436   38.6529 Y1         2 LUT     -0.215556
    170 C31        80.0281   65.4420   39.7232 Y2         2 LUT      0.025142
    171 C32        78.9143   64.6818   40.0698 Y3         2 LUT     -0.212209
    172 C33        77.8999   64.7802   41.1446 Y4         2 LUT      0.240937
    173 C34        76.6926   64.1196   40.9328 Y5         2 LUT     -0.218862
    174 C35        75.5490   64.1640   41.7244 Y6         2 LUT     -0.023547
    175 C36        87.1348   65.7882   36.4271 Y7         2 LUT     -0.393485
    176 C37        85.9372   63.6202   37.0148 Y7         2 LUT     -0.393485
    177 C38        83.6053   67.0079   33.8191 Y9         2 LUT     -0.387526
    178 C39        82.0532   67.6280   38.5247 W1         2 LUT     -0.322618
    179 C40        78.2277   65.7063   42.3065 W2         2 LUT     -0.358472
    180 H403       78.1455   66.7573   42.0444 R7         2 LUT      0.097720
    181 H402       77.5833   65.5449   43.1855 R7         2 LUT      0.097720
    182 H401       79.2405   65.4148   42.6309 R7         2 LUT      0.097720
    183 H393       82.3604   67.8827   39.5670 R4         2 LUT      0.082505
    184 H392       82.6783   68.2160   37.8199 R4         2 LUT      0.082505
    185 H391       81.0311   68.0953   38.4727 R4         2 LUT      0.082505
    186 H383       82.7105   66.4867   34.0298 R1         2 LUT      0.104030
    187 H382       83.5294   67.8372   34.4982 R1         2 LUT      0.104030
    188 H381       83.6505   67.2805   32.7489 R1         2 LUT      0.104030
    189 H373       85.3636   63.8184   37.9697 T4         2 LUT      0.089537
    190 H372       85.4800   62.7327   36.4819 T4         2 LUT      0.089537
    191 H371       86.9761   63.3255   37.2486 T4         2 LUT      0.089537
    192 H363       88.0768   65.2804   36.6075 T4         2 LUT      0.089537
    193 H362       87.2093   66.6544   35.7667 T4         2 LUT      0.089537
    194 H361       86.8093   66.3157   37.3054 T4         2 LUT      0.089537
    195 H222       87.7646   63.6833   34.9095 U2         2 LUT      0.127376
    196 H221       86.0454   63.3554   34.3446 U2         2 LUT      0.127376
    197 H203       72.5748   61.5583   40.4859 R7         2 LUT      0.087068
    198 H202       71.2945   60.9370   41.3242 R7         2 LUT      0.087068
    199 H201       71.0243   62.3024   40.4660 R7         2 LUT      0.087068
    200 H193       68.5235   59.7097   44.1764 R4         2 LUT      0.089716
    201 H192       67.4519   59.3164   45.5563 R4         2 LUT      0.089716
    202 H191       66.9134   60.4262   44.2594 R4         2 LUT      0.089716
    203 H183       66.5040   64.5464   47.9706 R1         2 LUT      0.094572
    204 H182       65.6977   63.2354   47.1823 R1         2 LUT      0.094572
    205 H181       64.7313   64.1749   48.3264 R1         2 LUT      0.094572
    206 H173       69.3760   61.2534   50.6560 T4         2 LUT      0.093752
    207 H172       68.3907   62.3792   51.6624 T4         2 LUT      0.093752
    208 H171       68.6428   60.6758   52.0311 T4         2 LUT      0.093752
    209 H163       67.8374   58.6509   50.8376 T4         2 LUT      0.093752
    210 H162       66.6345   58.9537   49.7024 T4         2 LUT      0.093752
    211 H161       68.4161   59.3642   49.4445 T4         2 LUT      0.093752
    212 HO3        65.1586   62.2854   53.5645 Q1         2 LUT      0.300121
    213 H8         68.0238   62.9098   47.1403 U7         2 LUT      0.080784
    214 H7         67.1739   60.1282   47.6195 U6         2 LUT      0.042190
    215 H42        65.0653   64.0490   50.7277 U5         2 LUT      0.145166
    216 H41        66.6871   63.8935   51.2588 U5         2 LUT      0.145166
    217 H35        75.7598   64.5836   42.7502 T3         2 LUT      0.077919
    218 H34        76.5840   63.4730   40.0895 T2         2 LUT      0.073626
    219 H32        78.7124   63.9347   39.2252 T1         2 LUT      0.092510
    220 H31        80.1469   66.3710   40.2750 U9         2 LUT      0.070048
    221 H30        80.9293   64.2382   38.3467 U8         2 LUT      0.085442
    222 H3         64.3187   62.2096   51.5057 U3         2 LUT     -0.031596
    223 H28        82.1737   64.5162   36.6597 U7         2 LUT      0.084728
    224 H27        84.3157   66.7381   37.0400 U6         2 LUT      0.087291
    225 H26        84.0908   64.4015   35.1422 Q6         2 LUT      0.075325
    226 H24        85.7839   66.7136   32.4977 Q5         2 LUT      0.094482
    227 H23        87.8221   65.7326   33.8037 U3         2 LUT     -0.024869
    228 H22        65.2829   60.3782   50.5938 U2         2 LUT      0.127376
    229 H21        66.0736   60.3629   52.2234 U2         2 LUT      0.127376
    230 H15        74.2436   62.9999   40.5702 T3         2 LUT      0.093200
    231 H14        73.4622   64.0622   43.2906 T2         2 LUT      0.068865
    232 H12        71.4856   63.3903   44.2081 T1         2 LUT      0.095507
    233 H11        69.9522   61.0531   43.0933 U9         2 LUT      0.068930
    234 H10        69.7888   62.7478   45.7437 U8         2 LUT      0.083911
    235 H1         87.3661   64.7346   31.5999 Q1         2 LUT      0.297311
@<TRIPOS>BOND
    1     6     1 1
    2     7     2 1
    3     8     3 1
    4     9     4 1
    5    11     4 1
    6    12     6 1
    7    13     9 1
    8    16     9 1
    9    25     5 1
   10    25    16 1
   11    26    10 1
   12    26    17 1
   13    27    18 1
   14    28    14 1
   15    28    19 1
   16    29    12 1
   17    30    13 1
   18    31    24 1
   19    32     1 1
   20    32    25 1
   21    33    21 1
   22    33    26 1
   23    34    22 1
   24    34    27 1
   25    35    23 1
   26    35    28 1
   27    36    12 1
   28    36    24 1
   29    37    13 1
   30    37    15 1
   31    38    31 1
   32    39    20 1
   33    39    32 1
   34    40     2 1
   35    40    33 1
   36    41     3 1
   37    41    34 1
   38    42     4 1
   39    42    35 1
   40    43    38 1
   41    44     5 1
   42    44    17 1
   43    44    39 1
   44    45    10 1
   45    45    18 1
   46    45    40 1
   47    46    19 1
   48    46    41 1
   49    47    14 1
   50    47    16 1
   51    47    42 1
   52    48    38 1
   53    49    48 1
   54    50    49 1
   55    51    50 1
   56    52    51 1
   57    53    51 1
   58    54    53 1
   59    55    54 1
   60    56    55 1
   61    57    56 1
   62    58    56 1
   63    59    58 1
   64    60    59 1
   65    61    60 1
   66    62    61 1
   67    63    61 1
   68    64    27 1
   69    64    46 1
   70    65     5 1
   71    65    10 1
   72    65    64 1
   73    65    14 1
   74    66    23 1
   75    67    23 1
   76    68    23 1
   77    69    22 1
   78    70    22 1
   79    71    22 1
   80    72    21 1
   81    73    21 1
   82    74    21 1
   83    75    20 1
   84    76    20 1
   85    77    20 1
   86    78    15 1
   87    79    15 1
   88    80    15 1
   89    81     8 1
   90    82     8 1
   91    83     8 1
   92    84     7 1
   93    85     7 1
   94    86     6 1
   95    87     6 1
   96    88     3 1
   97    89     3 1
   98    90     1 1
   99    91     1 1
  100    92    63 1
  101    93    63 1
  102    94    63 1
  103    95    62 1
  104    96    62 1
  105    97    62 1
  106    98    60 1
  107    99    60 1
  108   100    59 1
  109   101    59 1
  110   102    58 1
  111   103    58 1
  112   104    57 1
  113   105    57 1
  114   106    57 1
  115   107    55 1
  116   108    55 1
  117   109    54 1
  118   110    54 1
  119   111    53 1
  120   112    53 1
  121   113    19 1
  122   114    18 1
  123   115    17 1
  124   116     9 1
  125   117     2 1
  126   118    52 1
  127   119    52 1
  128   120    52 1
  129   121    51 1
  130   122    50 1
  131   123    50 1
  132   124    49 1
  133   125    49 1
  134   126    48 1
  135   127    48 1
  136   128    43 1
  137   129    43 1
  138   130    43 1
  139   131    39 1
  140   132    32 1
  141   133    31 1
  142   134    61 1
  143   135    56 1
  144   136    24 1
  145   137    24 1
  146   139   138 1
  147   140   139 1
  148   141   140 1
  149   142   140 1
  150   143   142 1
  151   144   138 1
  152   144   143 1
  153   145   144 1
  154   146   145 1
  155   147   146 1
  156   148   147 1
  157   149   148 1
  158   150   149 1
  159   151   150 1
  160   152   151 1
  161   153   152 1
  162   154   138 1
  163   155   138 1
  164   156   143 1
  165   157   147 1
  166   158   151 1
  167   160   159 1
  168   161   160 1
  169   162   161 1
  170   163   161 1
  171   164   163 1
  172   165   159 1
  173   165   164 1
  174   166   165 1
  175   167   166 1
  176   168   167 1
  177   169   168 1
  178   170   169 1
  179   171   170 1
  180   172   171 1
  181   173   172 1
  182   174   153 1
  183   174   173 1
  184   175   159 1
  185   176   159 1
  186   177   164 1
  187   178   168 1
  188   179   172 1
  189   180   179 1
  190   181   179 1
  191   182   179 1
  192   183   178 1
  193   184   178 1
  194   185   178 1
  195   186   177 1
  196   187   177 1
  197   188   177 1
  198   189   176 1
  199   190   176 1
  200   191   176 1
  201   192   175 1
  202   193   175 1
  203   194   175 1
  204   195   160 1
  205   196   160 1
  206   197   158 1
  207   198   158 1
  208   199   158 1
  209   200   157 1
  210   201   157 1
  211   202   157 1
  212   203   156 1
  213   204   156 1
  214   205   156 1
  215   206   155 1
  216   207   155 1
  217   208   155 1
  218   209   154 1
  219   210   154 1
  220   211   154 1
  221   212   141 1
  222   213   146 1
  223   214   145 1
  224   215   142 1
  225   216   142 1
  226   217   174 1
  227   218   173 1
  228   219   171 1
  229   220   170 1
  230   221   169 1
  231   222   140 1
  232   223   167 1
  233   224   166 1
  234   225   165 1
  235   226   163 1
  236   227   161 1
  237   228   139 1
  238   229   139 1
  239   230   153 1
  240   231   152 1
  241   232   150 1
  242   233   149 1
  243   234   148 1
  244   235   162 1
  245   65    153 1
  246   65    174 1
@<TRIPOS>SUBSTRUCTURE
      1 CLA               1 ****               0 ****  **** 
      2 LUT             138 ****               0 ****  **** 
