@<TRIPOS>MOLECULE
Cpptraj generated mol2 file.
  235   246     2     0     0
SMALL
USER_CHARGES


@<TRIPOS>ATOM
      1 CAA        79.8426   57.9925   33.4342 a2         1 CLA     -0.055900
      2 CAB        79.9980   61.8024   42.3901 c8         1 CLA     -0.148500
      3 CAC        72.9799   58.1783   42.0896 a2         1 CLA     -0.012600
      4 CAD        75.5665   55.5794   34.6247 ck         1 CLA      0.398800
      5 NA         78.9726   58.4049   36.7796 ns         1 CLA     -0.225500
      6 CBA        81.0024   57.7482   32.3531 a2         1 CLA     -0.135000
      7 CBB        81.2437   61.7741   42.9880 c0         1 CLA     -0.395200
      8 CBC        72.9869   56.5989   42.0559 a3         1 CLA     -0.037700
      9 CBD        77.0378   56.0194   34.2716 a1         1 CLA     -0.053900
     10 NB         78.8959   59.7869   39.4744 nm         1 CLA     -0.295700
     11 OBD        74.8799   54.8235   33.9822 o2         1 CLA     -0.494600
     12 CGA        81.4975   56.3437   31.9922 c4         1 CLA      0.827000
     13 CGD        77.8586   54.7789   34.0596 c4         1 CLA      0.655300
     14 ND         76.0656   57.6196   37.4674 nm         1 CLA     -0.291600
     15 CED        78.5929   52.6898   35.0842 a3         1 CLA      0.005400
     16 CHA        77.4926   56.9582   35.4148 cs         1 CLA     -0.123800
     17 CHB        80.8482   59.5607   37.8122 aa         1 CLA     -0.291900
     18 CHC        77.4260   60.4549   41.3371 aa         1 CLA     -0.090400
     19 CHD        74.2203   57.6979   39.0655 aa         1 CLA     -0.052000
     20 CMA        82.1776   57.2920   36.3687 a3         1 CLA     -0.230700
     21 CMB        82.1793   61.4456   39.8481 a3         1 CLA     -0.180800
     22 CMC        75.2645   60.1842   43.5029 a3         1 CLA     -0.134000
     23 CMD        72.8062   55.8227   36.7714 a3         1 CLA     -0.141100
     24 C1         82.5628   54.3317   32.8820 a2         1 CLA      0.023000
     25 C1A        78.7223   57.6211   35.6722 ac         1 CLA     -0.015100
     26 C1B        80.2047   60.0407   39.0645 cr         1 CLA      0.054700
     27 C1C        76.3059   59.6788   41.1525 cn         1 CLA     -0.005600
     28 C1D        74.8081   57.2495   37.8664 ap         1 CLA     -0.047300
     29 O1A        81.4838   55.8242   30.8754 o2         1 CLA     -0.610800
     30 O1D        78.6400   54.5619   33.1629 o2         1 CLA     -0.558200
     31 C2         82.9306   53.7098   34.2022 c8         1 CLA     -0.325100
     32 C2A        79.9637   57.3781   34.8804 a1         1 CLA      0.098600
     33 C2B        80.7996   60.9269   40.0160 cb         1 CLA      0.088500
     34 C2C        75.1817   59.5768   42.0639 cb         1 CLA      0.053700
     35 C2D        74.2488   56.3790   36.8227 cb         1 CLA      0.058900
     36 O2A        82.1269   55.7374   33.0741 o1         1 CLA     -0.437200
     37 O2D        77.9050   54.0118   35.2270 o1         1 CLA     -0.357600
     38 C3         83.9874   53.0125   34.6327 c5         1 CLA      0.031200
     39 C3A        81.0595   58.1502   35.7265 a1         1 CLA      0.166800
     40 C3B        79.8452   61.1278   41.0489 cb         1 CLA      0.035000
     41 C3C        74.1684   58.7871   41.4181 cb         1 CLA     -0.089900
     42 C3D        75.2886   56.2295   35.8992 cb         1 CLA     -0.035900
     43 C4         84.0184   51.5040   34.6611 a3         1 CLA     -0.053300
     44 C4A        80.2221   58.7286   36.8384 ac         1 CLA      0.001800
     45 C4B        78.6632   60.4817   40.6167 cn         1 CLA     -0.020900
     46 C4C        74.7355   58.4717   40.1021 cr         1 CLA     -0.044400
     47 C4D        76.3447   57.0067   36.2989 c6         1 CLA     -0.046000
     48 C5         85.2323   53.7550   35.0230 a2         1 CLA     -0.070400
     49 C6         85.3157   54.3489   36.4415 a2         1 CLA      0.043900
     50 C7         86.5686   55.1649   36.5709 a2         1 CLA     -0.150000
     51 C8         86.7570   55.6984   38.0746 a1         1 CLA      0.064200
     52 C9         85.7534   56.5773   38.7311 a3         1 CLA     -0.259300
     53 C10        88.1626   56.2082   38.1416 a2         1 CLA     -0.071900
     54 C11        88.7662   56.8067   39.4573 a2         1 CLA      0.014500
     55 C12        88.9197   55.7187   40.6015 a2         1 CLA     -0.112100
     56 C13        89.9066   56.1790   41.7060 a1         1 CLA      0.089200
     57 C14        90.3835   54.9944   42.5644 a3         1 CLA     -0.239100
     58 C15        89.5026   57.5310   42.4549 a2         1 CLA     -0.102200
     59 C16        88.1513   57.2856   43.1678 a2         1 CLA      0.023900
     60 C17        87.7238   58.6652   43.8117 a2         1 CLA     -0.105700
     61 C18        86.5724   58.5849   44.8782 a1         1 CLA      0.206800
     62 C19        86.5833   59.8427   45.7881 a3         1 CLA     -0.280100
     63 C20        85.1494   58.4083   44.3472 a3         1 CLA     -0.280100
     64 NC         76.0566   58.9452   40.0263 nx         1 CLA     -0.309200
     65 MG         77.3759   58.9370   38.3751 mg         1 CLA      0.895000
     66 HMD3       72.0994   56.6889   36.5834 dc         1 CLA      0.064300
     67 HMD2       72.6247   55.0489   36.0652 dc         1 CLA      0.064300
     68 HMD1       72.3952   55.4608   37.7168 dc         1 CLA      0.064300
     69 HMC3       74.2697   60.1534   43.9675 dc         1 CLA      0.052100
     70 HMC2       76.0504   59.6516   44.1023 dc         1 CLA      0.052100
     71 HMC1       75.6261   61.1882   43.4394 dc         1 CLA      0.052100
     72 HMB3       82.4300   61.9002   38.8937 dc         1 CLA      0.063600
     73 HMB2       82.2537   62.2807   40.4808 dc         1 CLA      0.063600
     74 HMB1       82.9019   60.6846   40.1034 dc         1 CLA      0.063600
     75 HMA3       82.7690   56.8010   35.5854 dc         1 CLA      0.058300
     76 HMA2       82.9206   57.8580   36.9318 dc         1 CLA      0.058300
     77 HMA1       81.8199   56.5181   36.9819 dc         1 CLA      0.058300
     78 HED3       78.2229   51.9873   35.8608 dc         1 CLA      0.079300
     79 HED2       78.2951   52.2695   34.1730 dc         1 CLA      0.079300
     80 HED1       79.6844   52.6989   35.1840 dc         1 CLA      0.079300
     81 HBC3       73.2029   56.1503   41.0323 dc         1 CLA      0.016300
     82 HBC2       73.8670   56.2800   42.6439 dc         1 CLA      0.016300
     83 HBC1       72.0948   56.1782   42.4388 dc         1 CLA      0.016300
     84 HBB2       81.2778   62.3127   43.9534 da         1 CLA      0.183000
     85 HBB1       82.1037   61.2337   42.5522 da         1 CLA      0.183000
     86 HBA2       80.7539   58.2092   31.3526 dc         1 CLA      0.029400
     87 HBA1       81.7771   58.3461   32.7603 dc         1 CLA      0.029400
     88 HAC2       73.0694   58.4615   43.1542 dc         1 CLA      0.029300
     89 HAC1       72.0232   58.5759   41.7420 dc         1 CLA      0.029300
     90 HAA2       78.9904   57.5658   32.9663 dc         1 CLA      0.028700
     91 HAA1       79.6695   59.0548   33.5872 dc         1 CLA      0.028700
     92 H203       84.9771   59.0413   43.4891 dc         1 CLA      0.065600
     93 H202       85.0772   57.4792   43.8169 dc         1 CLA      0.065600
     94 H201       84.3331   58.5549   45.1204 dc         1 CLA      0.065600
     95 H193       87.6791   60.0702   46.0442 dc         1 CLA      0.065600
     96 H192       86.0464   60.6050   45.2165 dc         1 CLA      0.065600
     97 H191       86.0260   59.6957   46.7443 dc         1 CLA      0.065600
     98 H172       88.6678   59.1182   44.2534 dc         1 CLA      0.027600
     99 H171       87.4338   59.2737   42.9785 dc         1 CLA      0.027600
    100 H162       87.4351   56.9324   42.4329 dc         1 CLA      0.002900
    101 H161       88.2079   56.4527   43.8569 dc         1 CLA      0.002900
    102 H152       90.1659   57.7657   43.3071 dc         1 CLA      0.029100
    103 H151       89.5757   58.3816   41.7761 dc         1 CLA      0.029100
    104 H143       90.5792   54.1161   41.9442 dc         1 CLA      0.063600
    105 H142       91.2816   55.1421   43.1825 dc         1 CLA      0.063600
    106 H141       89.5473   54.8941   43.2509 dc         1 CLA      0.063600
    107 H122       88.0122   55.2875   41.0081 dc         1 CLA      0.032500
    108 H121       89.4720   54.9057   40.0669 dc         1 CLA      0.032500
    109 H112       89.7582   57.1828   39.1130 dc         1 CLA      0.006600
    110 H111       88.1998   57.7477   39.6298 dc         1 CLA      0.006600
    111 H102       88.7923   55.3834   37.9732 dc         1 CLA      0.024100
    112 H101       88.2615   56.9942   37.3276 dc         1 CLA      0.024100
    113 HHD        73.1855   57.2897   39.1263 da         1 CLA      0.174300
    114 HHC        77.3744   61.1742   42.1762 da         1 CLA      0.136800
    115 HHB        81.9413   59.8591   37.6146 da         1 CLA      0.138300
    116 HBD        77.1039   56.5294   33.2743 dc         1 CLA      0.107700
    117 HAB        79.1617   62.2659   42.8091 da         1 CLA      0.155200
    118 H93        86.1257   57.1403   39.5745 dc         1 CLA      0.069500
    119 H92        85.4948   57.3188   37.8994 dc         1 CLA      0.069500
    120 H91        84.8428   56.0563   38.9291 dc         1 CLA      0.069500
    121 H8         86.9721   54.8325   38.6538 dc         1 CLA      0.029300
    122 H72        87.3341   54.4262   36.3341 dc         1 CLA      0.044400
    123 H71        86.6466   56.0903   35.9131 dc         1 CLA      0.044400
    124 H62        84.3805   55.0188   36.4484 dc         1 CLA      0.015600
    125 H61        85.2167   53.6134   37.2268 dc         1 CLA      0.015600
    126 H52        85.9375   52.9144   35.1522 dc         1 CLA      0.033200
    127 H51        85.5842   54.4625   34.2613 dc         1 CLA      0.033200
    128 H43        83.1398   51.0373   34.3790 dc         1 CLA      0.037000
    129 H42        84.8242   51.1974   34.0275 dc         1 CLA      0.037000
    130 H41        84.2004   51.1603   35.6611 dc         1 CLA      0.037000
    131 H3A        81.5901   58.9811   35.2178 dc         1 CLA      0.041100
    132 H2A        80.2906   56.3679   34.7726 dc         1 CLA      0.083100
    133 H2         82.1260   53.8901   34.9879 da         1 CLA      0.180900
    134 H18        86.9653   57.7884   45.5139 dc         1 CLA     -0.003900
    135 H13        90.8386   56.4440   41.2773 dc         1 CLA      0.019700
    136 H12        81.8180   53.7248   32.3560 dc         1 CLA      0.120400
    137 H11        83.4866   54.3881   32.2695 dc         1 CLA      0.120400
    138 C1         70.1419   61.8428   49.3416 Z1         2 LUT      0.509236
    139 C2         68.8836   61.6994   50.2186 Z2         2 LUT     -0.434695
    140 C3         68.0063   62.9742   50.4265 Z3         2 LUT      0.437453
    141 O3         68.0425   63.5534   51.7047 S1         2 LUT     -0.547129
    142 C4         68.2743   64.0957   49.4546 Z4         2 LUT     -0.468603
    143 C5         68.9685   63.7481   48.1146 Z5         2 LUT      0.279246
    144 C6         69.7795   62.7369   48.0272 Z6         2 LUT     -0.305473
    145 C7         70.2296   62.1887   46.7052 Z7         2 LUT      0.069402
    146 C8         71.3952   62.5529   46.0852 Z8         2 LUT     -0.191631
    147 C9         71.7132   62.3238   44.7205 Z9         2 LUT      0.196698
    148 C10        72.7438   63.0755   44.2318 Y1         2 LUT     -0.208611
    149 C11        73.3224   62.8521   42.8948 Y2         2 LUT      0.030784
    150 C12        74.4722   63.3954   42.5774 Y3         2 LUT     -0.220316
    151 C13        75.3178   63.2927   41.3503 Y4         2 LUT      0.215937
    152 C14        76.4579   64.0750   41.3462 Y5         2 LUT     -0.185793
    153 C15        77.4941   64.0394   40.3245 Y6         2 LUT     -0.057835
    154 C16        70.6461   60.4157   49.0884 Y7         2 LUT     -0.405615
    155 C17        71.1729   62.4524   50.3655 Y7         2 LUT     -0.405615
    156 C18        68.6275   64.6209   46.9021 Y9         2 LUT     -0.369639
    157 C19        71.1823   61.1329   43.9677 W1         2 LUT     -0.333362
    158 C20        74.7657   62.6490   40.1297 W2         2 LUT     -0.323439
    159 C21        88.8423   64.9932   34.1986 Z1         2 LUT      0.406104
    160 C22        89.6105   64.3018   33.0685 Z2         2 LUT     -0.404965
    161 C23        89.7492   64.9566   31.6650 Z3         2 LUT      0.391255
    162 O23        90.1606   63.8831   30.8270 S1         2 LUT     -0.528210
    163 C24        88.4634   65.7262   31.3924 W6         2 LUT     -0.258361
    164 C25        87.4123   65.9450   32.1461 Z5         2 LUT      0.133546
    165 C26        87.4096   65.3748   33.5973 W8         2 LUT     -0.147008
    166 C27        86.5420   66.0771   34.5944 Z7         2 LUT      0.023843
    167 C28        85.5178   65.5285   35.2959 Z8         2 LUT     -0.216987
    168 C29        84.9186   66.0884   36.5015 Z9         2 LUT      0.206524
    169 C30        83.9155   65.3951   37.0609 Y1         2 LUT     -0.215556
    170 C31        83.1251   65.6556   38.2091 Y2         2 LUT      0.025142
    171 C32        82.0735   64.8455   38.6017 Y3         2 LUT     -0.212209
    172 C33        81.0635   65.0407   39.7044 Y4         2 LUT      0.240937
    173 C34        79.8300   64.4151   39.7220 Y5         2 LUT     -0.218862
    174 C35        78.7850   64.4948   40.5585 Y6         2 LUT     -0.023547
    175 C36        89.6470   66.3456   34.5501 Y7         2 LUT     -0.393485
    176 C37        88.7871   64.0268   35.4025 Y7         2 LUT     -0.393485
    177 C38        86.3020   66.8402   31.6032 Y9         2 LUT     -0.387526
    178 C39        85.5123   67.3927   37.1552 W1         2 LUT     -0.322618
    179 C40        81.6424   65.7192   40.9858 W2         2 LUT     -0.358472
    180 H403       81.7787   64.9886   41.7641 R7         2 LUT      0.097720
    181 H402       82.7042   66.2188   40.9322 R7         2 LUT      0.097720
    182 H401       80.9887   66.5158   41.3911 R7         2 LUT      0.097720
    183 H393       85.8607   68.0821   36.3794 R4         2 LUT      0.082505
    184 H392       84.7309   67.8921   37.6813 R4         2 LUT      0.082505
    185 H391       86.4192   67.2554   37.7636 R4         2 LUT      0.082505
    186 H383       86.1740   67.7457   32.2234 R1         2 LUT      0.104030
    187 H382       86.3939   67.1028   30.5399 R1         2 LUT      0.104030
    188 H381       85.3540   66.4457   31.6872 R1         2 LUT      0.104030
    189 H373       89.6856   63.9613   36.0681 T4         2 LUT      0.089537
    190 H372       87.9156   64.3304   36.0257 T4         2 LUT      0.089537
    191 H371       88.4834   63.0456   35.0185 T4         2 LUT      0.089537
    192 H363       89.9809   66.8515   33.5839 T4         2 LUT      0.089537
    193 H362       89.0707   67.0610   35.1357 T4         2 LUT      0.089537
    194 H361       90.5486   66.1648   35.1602 T4         2 LUT      0.089537
    195 H222       90.5302   63.9064   33.4702 U2         2 LUT      0.127376
    196 H221       89.0396   63.3971   32.7997 U2         2 LUT      0.127376
    197 H203       75.5174   62.3697   39.4447 R7         2 LUT      0.087068
    198 H202       74.2286   61.6871   40.3900 R7         2 LUT      0.087068
    199 H201       74.0549   63.2614   39.5790 R7         2 LUT      0.087068
    200 H193       70.6483   61.4294   43.0801 R4         2 LUT      0.089716
    201 H192       71.9400   60.5157   43.5778 R4         2 LUT      0.089716
    202 H191       70.6450   60.4240   44.6127 R4         2 LUT      0.089716
    203 H183       69.5377   65.0340   46.4813 R1         2 LUT      0.094572
    204 H182       68.0656   64.0240   46.2262 R1         2 LUT      0.094572
    205 H181       67.9788   65.3119   47.3134 R1         2 LUT      0.094572
    206 H173       71.2464   61.7809   51.1937 T4         2 LUT      0.093752
    207 H172       72.1798   62.6633   49.9841 T4         2 LUT      0.093752
    208 H171       70.8306   63.4454   50.6529 T4         2 LUT      0.093752
    209 H163       71.5554   60.4830   48.5314 T4         2 LUT      0.093752
    210 H162       70.9532   59.8446   49.9468 T4         2 LUT      0.093752
    211 H161       69.8813   59.8469   48.4842 T4         2 LUT      0.093752
    212 HO3        68.0445   63.0098   52.5465 Q1         2 LUT      0.300121
    213 H8         71.8556   63.3848   46.6156 U7         2 LUT      0.080784
    214 H7         69.4791   61.8035   46.0730 U6         2 LUT      0.042190
    215 H42        67.3157   64.5882   49.2403 U5         2 LUT      0.145166
    216 H41        68.8584   64.8115   49.9853 U5         2 LUT      0.145166
    217 H35        78.9424   65.1141   41.5352 T3         2 LUT      0.077919
    218 H34        79.4200   63.9455   38.7394 T2         2 LUT      0.073626
    219 H32        81.8095   64.0940   37.9558 T1         2 LUT      0.092510
    220 H31        83.3078   66.5001   38.8126 U9         2 LUT      0.070048
    221 H30        83.6432   64.4796   36.4758 U8         2 LUT      0.085442
    222 H3         66.9839   62.6029   50.4188 U3         2 LUT     -0.031596
    223 H28        85.1659   64.5614   34.9408 U7         2 LUT      0.084728
    224 H27        86.9661   67.0653   34.8738 U6         2 LUT      0.087291
    225 H26        86.8480   64.4450   33.4292 Q6         2 LUT      0.075325
    226 H24        88.4031   66.0358   30.3045 Q5         2 LUT      0.094482
    227 H23        90.6044   65.6527   31.6473 U3         2 LUT     -0.024869
    228 H22        68.2084   60.9526   49.7399 U2         2 LUT      0.127376
    229 H21        68.9133   61.0832   51.1183 U2         2 LUT      0.127376
    230 H15        77.2987   63.5205   39.3260 T3         2 LUT      0.093200
    231 H14        76.6377   64.7830   42.2176 T2         2 LUT      0.068865
    232 H12        74.9364   64.0881   43.3027 T1         2 LUT      0.095507
    233 H11        72.7093   62.1783   42.2677 U9         2 LUT      0.068930
    234 H10        73.2417   63.8405   44.8235 U8         2 LUT      0.083911
    235 H1         90.5229   64.2056   29.9457 Q1         2 LUT      0.297311
@<TRIPOS>BOND
    1     6     1 1
    2     7     2 1
    3     8     3 1
    4     9     4 1
    5    11     4 1
    6    12     6 1
    7    13     9 1
    8    16     9 1
    9    25     5 1
   10    25    16 1
   11    26    10 1
   12    26    17 1
   13    27    18 1
   14    28    14 1
   15    28    19 1
   16    29    12 1
   17    30    13 1
   18    31    24 1
   19    32     1 1
   20    32    25 1
   21    33    21 1
   22    33    26 1
   23    34    22 1
   24    34    27 1
   25    35    23 1
   26    35    28 1
   27    36    12 1
   28    36    24 1
   29    37    13 1
   30    37    15 1
   31    38    31 1
   32    39    20 1
   33    39    32 1
   34    40     2 1
   35    40    33 1
   36    41     3 1
   37    41    34 1
   38    42     4 1
   39    42    35 1
   40    43    38 1
   41    44     5 1
   42    44    17 1
   43    44    39 1
   44    45    10 1
   45    45    18 1
   46    45    40 1
   47    46    19 1
   48    46    41 1
   49    47    14 1
   50    47    16 1
   51    47    42 1
   52    48    38 1
   53    49    48 1
   54    50    49 1
   55    51    50 1
   56    52    51 1
   57    53    51 1
   58    54    53 1
   59    55    54 1
   60    56    55 1
   61    57    56 1
   62    58    56 1
   63    59    58 1
   64    60    59 1
   65    61    60 1
   66    62    61 1
   67    63    61 1
   68    64    27 1
   69    64    46 1
   70    65     5 1
   71    65    10 1
   72    65    64 1
   73    65    14 1
   74    66    23 1
   75    67    23 1
   76    68    23 1
   77    69    22 1
   78    70    22 1
   79    71    22 1
   80    72    21 1
   81    73    21 1
   82    74    21 1
   83    75    20 1
   84    76    20 1
   85    77    20 1
   86    78    15 1
   87    79    15 1
   88    80    15 1
   89    81     8 1
   90    82     8 1
   91    83     8 1
   92    84     7 1
   93    85     7 1
   94    86     6 1
   95    87     6 1
   96    88     3 1
   97    89     3 1
   98    90     1 1
   99    91     1 1
  100    92    63 1
  101    93    63 1
  102    94    63 1
  103    95    62 1
  104    96    62 1
  105    97    62 1
  106    98    60 1
  107    99    60 1
  108   100    59 1
  109   101    59 1
  110   102    58 1
  111   103    58 1
  112   104    57 1
  113   105    57 1
  114   106    57 1
  115   107    55 1
  116   108    55 1
  117   109    54 1
  118   110    54 1
  119   111    53 1
  120   112    53 1
  121   113    19 1
  122   114    18 1
  123   115    17 1
  124   116     9 1
  125   117     2 1
  126   118    52 1
  127   119    52 1
  128   120    52 1
  129   121    51 1
  130   122    50 1
  131   123    50 1
  132   124    49 1
  133   125    49 1
  134   126    48 1
  135   127    48 1
  136   128    43 1
  137   129    43 1
  138   130    43 1
  139   131    39 1
  140   132    32 1
  141   133    31 1
  142   134    61 1
  143   135    56 1
  144   136    24 1
  145   137    24 1
  146   139   138 1
  147   140   139 1
  148   141   140 1
  149   142   140 1
  150   143   142 1
  151   144   138 1
  152   144   143 1
  153   145   144 1
  154   146   145 1
  155   147   146 1
  156   148   147 1
  157   149   148 1
  158   150   149 1
  159   151   150 1
  160   152   151 1
  161   153   152 1
  162   154   138 1
  163   155   138 1
  164   156   143 1
  165   157   147 1
  166   158   151 1
  167   160   159 1
  168   161   160 1
  169   162   161 1
  170   163   161 1
  171   164   163 1
  172   165   159 1
  173   165   164 1
  174   166   165 1
  175   167   166 1
  176   168   167 1
  177   169   168 1
  178   170   169 1
  179   171   170 1
  180   172   171 1
  181   173   172 1
  182   174   153 1
  183   174   173 1
  184   175   159 1
  185   176   159 1
  186   177   164 1
  187   178   168 1
  188   179   172 1
  189   180   179 1
  190   181   179 1
  191   182   179 1
  192   183   178 1
  193   184   178 1
  194   185   178 1
  195   186   177 1
  196   187   177 1
  197   188   177 1
  198   189   176 1
  199   190   176 1
  200   191   176 1
  201   192   175 1
  202   193   175 1
  203   194   175 1
  204   195   160 1
  205   196   160 1
  206   197   158 1
  207   198   158 1
  208   199   158 1
  209   200   157 1
  210   201   157 1
  211   202   157 1
  212   203   156 1
  213   204   156 1
  214   205   156 1
  215   206   155 1
  216   207   155 1
  217   208   155 1
  218   209   154 1
  219   210   154 1
  220   211   154 1
  221   212   141 1
  222   213   146 1
  223   214   145 1
  224   215   142 1
  225   216   142 1
  226   217   174 1
  227   218   173 1
  228   219   171 1
  229   220   170 1
  230   221   169 1
  231   222   140 1
  232   223   167 1
  233   224   166 1
  234   225   165 1
  235   226   163 1
  236   227   161 1
  237   228   139 1
  238   229   139 1
  239   230   153 1
  240   231   152 1
  241   232   150 1
  242   233   149 1
  243   234   148 1
  244   235   162 1
  245   65    153 1
  246   65    174 1
@<TRIPOS>SUBSTRUCTURE
      1 CLA               1 ****               0 ****  **** 
      2 LUT             138 ****               0 ****  **** 
