@<TRIPOS>MOLECULE
Cpptraj generated mol2 file.
  235   246     2     0     0
SMALL
USER_CHARGES


@<TRIPOS>ATOM
      1 CAA        77.4883   57.3910   33.3212 a2         1 CLA     -0.055900
      2 CAB        77.7910   61.4027   42.1068 c8         1 CLA     -0.148500
      3 CAC        70.9178   57.1917   41.6443 a2         1 CLA     -0.012600
      4 CAD        73.2674   54.8409   34.4903 ck         1 CLA      0.398800
      5 NA         76.5359   57.8365   36.5957 ns         1 CLA     -0.225500
      6 CBA        78.5831   57.1576   32.2745 a2         1 CLA     -0.135000
      7 CBB        78.9490   61.4690   42.8041 c0         1 CLA     -0.395200
      8 CBC        71.1765   55.7084   41.5914 a3         1 CLA     -0.037700
      9 CBD        74.6813   55.3640   34.1732 a1         1 CLA     -0.053900
     10 NB         76.5294   59.5329   39.1657 nm         1 CLA     -0.295700
     11 OBD        72.6330   54.0217   33.8606 o2         1 CLA     -0.494600
     12 CGA        78.7915   55.6941   31.8318 c4         1 CLA      0.827000
     13 CGD        75.5455   54.0541   33.8672 c4         1 CLA      0.655300
     14 ND         73.7007   57.2299   37.2118 nm         1 CLA     -0.291600
     15 CED        76.1273   51.8733   34.4807 a3         1 CLA      0.005400
     16 CHA        75.1621   56.3110   35.3308 cs         1 CLA     -0.123800
     17 CHB        78.4385   59.0550   37.7505 aa         1 CLA     -0.291900
     18 CHC        75.1921   59.9879   41.0990 aa         1 CLA     -0.090400
     19 CHD        71.8974   57.2706   38.8095 aa         1 CLA     -0.052000
     20 CMA        79.9625   56.7733   36.2031 a3         1 CLA     -0.230700
     21 CMB        80.0666   60.8626   39.9086 a3         1 CLA     -0.180800
     22 CMC        72.7579   59.4293   43.3256 a3         1 CLA     -0.134000
     23 CMD        70.4863   55.4222   36.6789 a3         1 CLA     -0.141100
     24 C1         79.5939   53.5872   32.6848 a2         1 CLA      0.023000
     25 C1A        76.3356   56.9920   35.5232 ac         1 CLA     -0.015100
     26 C1B        77.8322   59.7489   38.8275 cr         1 CLA      0.054700
     27 C1C        73.9735   59.2931   40.8779 cn         1 CLA     -0.005600
     28 C1D        72.4262   56.8616   37.5941 ap         1 CLA     -0.047300
     29 O1A        78.3438   55.1068   30.8565 o2         1 CLA     -0.610800
     30 O1D        76.4441   54.0772   32.9757 o2         1 CLA     -0.558200
     31 C2         80.1195   53.3170   34.0895 c8         1 CLA     -0.325100
     32 C2A        77.6945   56.8433   34.7377 a1         1 CLA      0.098600
     33 C2B        78.5686   60.5040   39.8969 cb         1 CLA      0.088500
     34 C2C        72.8657   58.9757   41.8073 cb         1 CLA      0.053700
     35 C2D        71.8238   55.9378   36.6756 cb         1 CLA      0.058900
     36 O2A        79.4500   55.0581   32.7706 o1         1 CLA     -0.437200
     37 O2D        75.3310   53.0618   34.7623 o1         1 CLA     -0.357600
     38 C3         80.9958   52.3730   34.4983 c5         1 CLA      0.031200
     39 C3A        78.7580   57.6525   35.6668 a1         1 CLA      0.166800
     40 C3B        77.6084   60.7900   40.7970 cb         1 CLA      0.035000
     41 C3C        72.0347   58.0307   41.1190 cb         1 CLA     -0.089900
     42 C3D        72.8624   55.6484   35.7044 cb         1 CLA     -0.035900
     43 C4         80.5495   50.9094   34.9162 a3         1 CLA     -0.053300
     44 C4A        77.8908   58.1842   36.7365 ac         1 CLA      0.001800
     45 C4B        76.4077   60.0560   40.4083 cn         1 CLA     -0.020900
     46 C4C        72.5396   58.0087   39.8010 cr         1 CLA     -0.044400
     47 C4D        73.9961   56.4246   36.0943 c6         1 CLA     -0.046000
     48 C5         82.4714   52.6273   34.2426 a2         1 CLA     -0.070400
     49 C6         83.0385   53.8784   34.9282 a2         1 CLA      0.043900
     50 C7         83.1987   53.7894   36.4525 a2         1 CLA     -0.150000
     51 C8         83.6557   55.1621   37.0749 a1         1 CLA      0.064200
     52 C9         85.1478   55.5245   36.7515 a3         1 CLA     -0.259300
     53 C10        83.3503   55.1231   38.5888 a2         1 CLA     -0.071900
     54 C11        81.9142   55.4038   39.1251 a2         1 CLA      0.014500
     55 C12        81.8671   55.4639   40.6492 a2         1 CLA     -0.112100
     56 C13        80.5026   55.8327   41.4077 a1         1 CLA      0.089200
     57 C14        79.8276   57.0109   40.5379 a3         1 CLA     -0.239100
     58 C15        80.8565   56.3256   42.8695 a2         1 CLA     -0.102200
     59 C16        81.5671   57.6880   42.9305 a2         1 CLA      0.023900
     60 C17        81.7232   58.1339   44.3845 a2         1 CLA     -0.105700
     61 C18        82.6178   59.3393   44.7512 a1         1 CLA      0.206800
     62 C19        84.0716   59.3669   44.1195 a3         1 CLA     -0.280100
     63 C20        81.8717   60.5945   44.4164 a3         1 CLA     -0.280100
     64 NC         73.7323   58.6669   39.7086 nx         1 CLA     -0.309200
     65 MG         75.0432   58.4270   38.0943 mg         1 CLA      0.895000
     66 HMD3       70.6142   54.4912   36.1167 dc         1 CLA      0.064300
     67 HMD2       70.3475   54.9982   37.7069 dc         1 CLA      0.064300
     68 HMD1       69.7220   56.2258   36.3721 dc         1 CLA      0.064300
     69 HMC3       73.2198   60.3986   43.4789 dc         1 CLA      0.052100
     70 HMC2       71.7286   59.5041   43.5164 dc         1 CLA      0.052100
     71 HMC1       73.2726   58.7424   44.0465 dc         1 CLA      0.052100
     72 HMB3       80.6694   60.3396   40.7021 dc         1 CLA      0.063600
     73 HMB2       80.5163   60.6620   38.9264 dc         1 CLA      0.063600
     74 HMB1       80.2653   61.9459   39.9377 dc         1 CLA      0.063600
     75 HMA3       80.4086   57.3764   36.9797 dc         1 CLA      0.058300
     76 HMA2       79.6878   55.7990   36.6276 dc         1 CLA      0.058300
     77 HMA1       80.6858   56.6082   35.4103 dc         1 CLA      0.058300
     78 HED3       75.9491   51.5420   33.4987 dc         1 CLA      0.079300
     79 HED2       77.1824   52.1145   34.6369 dc         1 CLA      0.079300
     80 HED1       75.8694   51.0664   35.1527 dc         1 CLA      0.079300
     81 HBC3       72.1945   55.6118   42.0294 dc         1 CLA      0.016300
     82 HBC2       70.4587   55.2044   42.2317 dc         1 CLA      0.016300
     83 HBC1       71.2186   55.2921   40.5838 dc         1 CLA      0.016300
     84 HBB2       78.9547   61.8388   43.8282 da         1 CLA      0.183000
     85 HBB1       79.9235   61.0480   42.4319 da         1 CLA      0.183000
     86 HBA2       78.3617   57.6308   31.3288 dc         1 CLA      0.029400
     87 HBA1       79.5927   57.4917   32.7202 dc         1 CLA      0.029400
     88 HAC2       70.7163   57.3979   42.6925 dc         1 CLA      0.029300
     89 HAC1       70.0508   57.4478   41.0931 dc         1 CLA      0.029300
     90 HAA2       76.4692   57.1036   32.9775 dc         1 CLA      0.028700
     91 HAA1       77.4329   58.5076   33.5016 dc         1 CLA      0.028700
     92 H203       80.8788   60.6376   44.8351 dc         1 CLA      0.065600
     93 H202       82.5303   61.4350   44.7855 dc         1 CLA      0.065600
     94 H201       81.8873   60.6157   43.2939 dc         1 CLA      0.065600
     95 H193       83.9526   59.4891   43.0928 dc         1 CLA      0.065600
     96 H192       84.5740   60.1679   44.6291 dc         1 CLA      0.065600
     97 H191       84.6738   58.5396   44.3792 dc         1 CLA      0.065600
     98 H172       80.8044   58.3659   44.7738 dc         1 CLA      0.027600
     99 H171       82.1249   57.3361   44.9816 dc         1 CLA      0.027600
    100 H162       82.6104   57.6513   42.5447 dc         1 CLA      0.002900
    101 H161       81.0605   58.5119   42.4636 dc         1 CLA      0.002900
    102 H152       79.9325   56.3936   43.3971 dc         1 CLA      0.029100
    103 H151       81.4282   55.5385   43.4189 dc         1 CLA      0.029100
    104 H143       80.5264   57.7848   40.2547 dc         1 CLA      0.063600
    105 H142       79.5219   56.5841   39.5847 dc         1 CLA      0.063600
    106 H141       78.9950   57.5314   41.0312 dc         1 CLA      0.063600
    107 H122       82.1865   54.4490   40.8950 dc         1 CLA      0.032500
    108 H121       82.6707   56.1643   40.8530 dc         1 CLA      0.032500
    109 H112       81.4911   56.3451   38.7065 dc         1 CLA      0.006600
    110 H111       81.4328   54.5281   38.7809 dc         1 CLA      0.006600
    111 H102       83.6635   54.1257   38.8211 dc         1 CLA      0.024100
    112 H101       83.9819   55.7956   39.1389 dc         1 CLA      0.024100
    113 HHD        70.8364   56.9556   39.0202 da         1 CLA      0.174300
    114 HHC        75.2608   60.4079   42.0559 da         1 CLA      0.136800
    115 HHB        79.4707   59.2267   37.8647 da         1 CLA      0.138300
    116 HBD        74.6879   55.8377   33.1214 dc         1 CLA      0.107700
    117 HAB        76.8218   61.6813   42.5232 da         1 CLA      0.155200
    118 H93        85.2727   56.4189   37.3475 dc         1 CLA      0.069500
    119 H92        85.8649   54.7577   37.0890 dc         1 CLA      0.069500
    120 H91        85.2987   55.6419   35.6755 dc         1 CLA      0.069500
    121 H8         83.0332   56.0227   36.7702 dc         1 CLA      0.029300
    122 H72        82.2389   53.4529   36.8762 dc         1 CLA      0.044400
    123 H71        83.8613   52.9751   36.7396 dc         1 CLA      0.044400
    124 H62        84.0543   54.0515   34.5621 dc         1 CLA      0.015600
    125 H61        82.4081   54.7715   34.7706 dc         1 CLA      0.015600
    126 H52        83.0669   51.8490   34.5682 dc         1 CLA      0.033200
    127 H51        82.6707   52.6219   33.1589 dc         1 CLA      0.033200
    128 H43        80.9876   50.5864   35.8315 dc         1 CLA      0.037000
    129 H42        79.5418   50.7641   35.0227 dc         1 CLA      0.037000
    130 H41        81.0101   50.1734   34.2622 dc         1 CLA      0.037000
    131 H3A        79.1722   58.4805   35.1862 dc         1 CLA      0.041100
    132 H2A        78.0183   55.8549   34.7109 dc         1 CLA      0.083100
    133 H2         79.9868   54.1590   34.7638 da         1 CLA      0.180900
    134 H18        82.7736   59.3292   45.8324 dc         1 CLA     -0.003900
    135 H13        79.8471   54.9284   41.4033 dc         1 CLA      0.019700
    136 H12        78.6234   53.0956   32.4373 dc         1 CLA      0.120400
    137 H11        80.1882   53.1976   31.8276 dc         1 CLA      0.120400
    138 C1         66.8615   61.2113   49.4207 Z1         2 LUT      0.509236
    139 C2         67.1214   62.4875   50.2757 Z2         2 LUT     -0.434695
    140 C3         65.8460   63.3741   50.4535 Z3         2 LUT      0.437453
    141 O3         66.3258   64.6818   50.8294 S1         2 LUT     -0.547129
    142 C4         65.1050   63.4388   49.1089 Z4         2 LUT     -0.468603
    143 C5         65.7033   62.7926   47.8787 Z5         2 LUT      0.279246
    144 C6         66.4570   61.6823   47.9942 Z6         2 LUT     -0.305473
    145 C7         67.2368   61.1948   46.8060 Z7         2 LUT      0.069402
    146 C8         68.0503   61.8860   45.9323 Z8         2 LUT     -0.191631
    147 C9         68.6764   61.2301   44.7103 Z9         2 LUT      0.196698
    148 C10        69.6698   62.0046   44.1718 Y1         2 LUT     -0.208611
    149 C11        70.3971   61.9241   42.9524 Y2         2 LUT      0.030784
    150 C12        71.4767   62.7062   42.6547 Y3         2 LUT     -0.220316
    151 C13        72.1284   62.5914   41.3857 Y4         2 LUT      0.215937
    152 C14        73.3241   63.2051   41.2681 Y5         2 LUT     -0.185793
    153 C15        74.2379   63.2595   40.1727 Y6         2 LUT     -0.057835
    154 C16        65.6638   60.3570   50.1789 Y7         2 LUT     -0.405615
    155 C17        68.0713   60.2765   49.4195 Y7         2 LUT     -0.405615
    156 C18        65.4964   63.6425   46.5901 Y9         2 LUT     -0.369639
    157 C19        68.1203   59.9803   44.0310 W1         2 LUT     -0.333362
    158 C20        71.5286   61.7616   40.2533 W2         2 LUT     -0.323439
    159 C21        86.0489   64.0058   34.5889 Z1         2 LUT      0.406104
    160 C22        86.8745   63.4621   33.4195 Z2         2 LUT     -0.404965
    161 C23        87.1334   64.4122   32.2980 Z3         2 LUT      0.391255
    162 O23        87.7358   63.5997   31.2536 S1         2 LUT     -0.528210
    163 C24        85.9227   65.3322   31.9642 W6         2 LUT     -0.258361
    164 C25        84.8399   65.4655   32.7194 Z5         2 LUT      0.133546
    165 C26        84.6432   64.5438   33.9811 W8         2 LUT     -0.147008
    166 C27        83.8679   65.2799   35.0379 Z7         2 LUT      0.023843
    167 C28        82.5860   64.9022   35.3990 Z8         2 LUT     -0.216987
    168 C29        81.9178   65.4084   36.5835 Z9         2 LUT      0.206524
    169 C30        80.7823   64.7189   36.9375 Y1         2 LUT     -0.215556
    170 C31        79.9750   64.8532   38.0928 Y2         2 LUT      0.025142
    171 C32        78.7995   64.1712   38.3619 Y3         2 LUT     -0.212209
    172 C33        77.8115   64.3735   39.3559 Y4         2 LUT      0.240937
    173 C34        76.5571   63.6966   39.3085 Y5         2 LUT     -0.218862
    174 C35        75.5063   63.6768   40.2401 Y6         2 LUT     -0.023547
    175 C36        86.8928   65.0882   35.3045 Y7         2 LUT     -0.393485
    176 C37        85.7760   62.7962   35.5285 Y7         2 LUT     -0.393485
    177 C38        83.7773   66.4414   32.2775 Y9         2 LUT     -0.387526
    178 C39        82.5587   66.5146   37.4215 W1         2 LUT     -0.322618
    179 C40        78.3240   65.2087   40.5702 W2         2 LUT     -0.358472
    180 H403       77.7437   65.1448   41.5035 R7         2 LUT      0.097720
    181 H402       79.2943   64.7971   40.9476 R7         2 LUT      0.097720
    182 H401       78.4871   66.2819   40.4088 R7         2 LUT      0.097720
    183 H393       83.6245   66.5503   37.4249 R4         2 LUT      0.082505
    184 H392       82.2520   67.4483   37.0702 R4         2 LUT      0.082505
    185 H391       82.3673   66.5353   38.4527 R4         2 LUT      0.082505
    186 H383       83.0246   65.8392   31.6730 R1         2 LUT      0.104030
    187 H382       83.3453   67.0659   33.0288 R1         2 LUT      0.104030
    188 H381       84.2592   67.2094   31.6346 R1         2 LUT      0.104030
    189 H373       85.1878   62.0085   35.0718 T4         2 LUT      0.089537
    190 H372       86.6286   62.2002   35.8289 T4         2 LUT      0.089537
    191 H371       85.2387   63.1044   36.3732 T4         2 LUT      0.089537
    192 H363       87.0086   66.0412   34.8540 T4         2 LUT      0.089537
    193 H362       86.5680   65.2839   36.3076 T4         2 LUT      0.089537
    194 H361       87.9812   64.7175   35.4029 T4         2 LUT      0.089537
    195 H222       87.8451   63.1839   33.9093 U2         2 LUT      0.127376
    196 H221       86.3082   62.6253   33.0015 U2         2 LUT      0.127376
    197 H203       70.6409   62.1638   39.8140 R7         2 LUT      0.087068
    198 H202       72.2411   61.6388   39.4559 R7         2 LUT      0.087068
    199 H201       71.3171   60.7653   40.5674 R7         2 LUT      0.087068
    200 H193       68.0035   59.1573   44.7815 R4         2 LUT      0.089716
    201 H192       67.1412   60.1865   43.5143 R4         2 LUT      0.089716
    202 H191       68.8475   59.6657   43.3015 R4         2 LUT      0.089716
    203 H183       65.7596   63.0890   45.6720 R1         2 LUT      0.094572
    204 H182       64.4180   64.0203   46.6057 R1         2 LUT      0.094572
    205 H181       66.1093   64.4559   46.7202 R1         2 LUT      0.094572
    206 H173       68.3167   59.9127   50.4930 T4         2 LUT      0.093752
    207 H172       67.9399   59.4182   48.7874 T4         2 LUT      0.093752
    208 H171       68.9703   60.6732   48.9318 T4         2 LUT      0.093752
    209 H163       65.4843   59.4122   49.7189 T4         2 LUT      0.093752
    210 H162       65.7563   60.2200   51.2474 T4         2 LUT      0.093752
    211 H161       64.6917   60.8665   49.9056 T4         2 LUT      0.093752
    212 HO3        65.5839   65.2123   51.0968 Q1         2 LUT      0.300121
    213 H8         68.2983   62.9967   46.1562 U7         2 LUT      0.080784
    214 H7         67.0772   60.1516   46.6075 U6         2 LUT      0.042190
    215 H42        64.0811   63.0913   49.3525 U5         2 LUT      0.145166
    216 H41        64.9821   64.4864   48.8043 U5         2 LUT      0.145166
    217 H35        75.7466   64.0598   41.2577 T3         2 LUT      0.077919
    218 H34        76.3739   63.0870   38.3591 T2         2 LUT      0.073626
    219 H32        78.4635   63.4991   37.5682 T1         2 LUT      0.092510
    220 H31        80.1944   65.5777   38.8599 U9         2 LUT      0.070048
    221 H30        80.4962   63.8090   36.3172 U8         2 LUT      0.085442
    222 H3         65.1732   62.9693   51.1928 U3         2 LUT     -0.031596
    223 H28        82.3910   63.9247   34.9545 U7         2 LUT      0.084728
    224 H27        84.3455   66.1197   35.4636 U6         2 LUT      0.087291
    225 H26        83.9898   63.7153   33.5267 Q6         2 LUT      0.075325
    226 H24        86.0820   66.0091   31.1512 Q5         2 LUT      0.094482
    227 H23        87.9420   65.0908   32.6164 U3         2 LUT     -0.024869
    228 H22        67.4292   62.1799   51.2878 U2         2 LUT      0.127376
    229 H21        67.9565   63.0028   49.8553 U2         2 LUT      0.127376
    230 H15        73.9748   62.9720   39.1505 T3         2 LUT      0.093200
    231 H14        73.6915   63.6283   42.2135 T2         2 LUT      0.068865
    232 H12        71.9518   63.4316   43.3514 T1         2 LUT      0.095507
    233 H11        69.9251   61.2169   42.2017 U9         2 LUT      0.068930
    234 H10        69.8764   62.9549   44.7399 U8         2 LUT      0.083911
    235 H1         87.9829   64.0957   30.4549 Q1         2 LUT      0.297311
@<TRIPOS>BOND
    1     6     1 1
    2     7     2 1
    3     8     3 1
    4     9     4 1
    5    11     4 1
    6    12     6 1
    7    13     9 1
    8    16     9 1
    9    25     5 1
   10    25    16 1
   11    26    10 1
   12    26    17 1
   13    27    18 1
   14    28    14 1
   15    28    19 1
   16    29    12 1
   17    30    13 1
   18    31    24 1
   19    32     1 1
   20    32    25 1
   21    33    21 1
   22    33    26 1
   23    34    22 1
   24    34    27 1
   25    35    23 1
   26    35    28 1
   27    36    12 1
   28    36    24 1
   29    37    13 1
   30    37    15 1
   31    38    31 1
   32    39    20 1
   33    39    32 1
   34    40     2 1
   35    40    33 1
   36    41     3 1
   37    41    34 1
   38    42     4 1
   39    42    35 1
   40    43    38 1
   41    44     5 1
   42    44    17 1
   43    44    39 1
   44    45    10 1
   45    45    18 1
   46    45    40 1
   47    46    19 1
   48    46    41 1
   49    47    14 1
   50    47    16 1
   51    47    42 1
   52    48    38 1
   53    49    48 1
   54    50    49 1
   55    51    50 1
   56    52    51 1
   57    53    51 1
   58    54    53 1
   59    55    54 1
   60    56    55 1
   61    57    56 1
   62    58    56 1
   63    59    58 1
   64    60    59 1
   65    61    60 1
   66    62    61 1
   67    63    61 1
   68    64    27 1
   69    64    46 1
   70    65     5 1
   71    65    10 1
   72    65    64 1
   73    65    14 1
   74    66    23 1
   75    67    23 1
   76    68    23 1
   77    69    22 1
   78    70    22 1
   79    71    22 1
   80    72    21 1
   81    73    21 1
   82    74    21 1
   83    75    20 1
   84    76    20 1
   85    77    20 1
   86    78    15 1
   87    79    15 1
   88    80    15 1
   89    81     8 1
   90    82     8 1
   91    83     8 1
   92    84     7 1
   93    85     7 1
   94    86     6 1
   95    87     6 1
   96    88     3 1
   97    89     3 1
   98    90     1 1
   99    91     1 1
  100    92    63 1
  101    93    63 1
  102    94    63 1
  103    95    62 1
  104    96    62 1
  105    97    62 1
  106    98    60 1
  107    99    60 1
  108   100    59 1
  109   101    59 1
  110   102    58 1
  111   103    58 1
  112   104    57 1
  113   105    57 1
  114   106    57 1
  115   107    55 1
  116   108    55 1
  117   109    54 1
  118   110    54 1
  119   111    53 1
  120   112    53 1
  121   113    19 1
  122   114    18 1
  123   115    17 1
  124   116     9 1
  125   117     2 1
  126   118    52 1
  127   119    52 1
  128   120    52 1
  129   121    51 1
  130   122    50 1
  131   123    50 1
  132   124    49 1
  133   125    49 1
  134   126    48 1
  135   127    48 1
  136   128    43 1
  137   129    43 1
  138   130    43 1
  139   131    39 1
  140   132    32 1
  141   133    31 1
  142   134    61 1
  143   135    56 1
  144   136    24 1
  145   137    24 1
  146   139   138 1
  147   140   139 1
  148   141   140 1
  149   142   140 1
  150   143   142 1
  151   144   138 1
  152   144   143 1
  153   145   144 1
  154   146   145 1
  155   147   146 1
  156   148   147 1
  157   149   148 1
  158   150   149 1
  159   151   150 1
  160   152   151 1
  161   153   152 1
  162   154   138 1
  163   155   138 1
  164   156   143 1
  165   157   147 1
  166   158   151 1
  167   160   159 1
  168   161   160 1
  169   162   161 1
  170   163   161 1
  171   164   163 1
  172   165   159 1
  173   165   164 1
  174   166   165 1
  175   167   166 1
  176   168   167 1
  177   169   168 1
  178   170   169 1
  179   171   170 1
  180   172   171 1
  181   173   172 1
  182   174   153 1
  183   174   173 1
  184   175   159 1
  185   176   159 1
  186   177   164 1
  187   178   168 1
  188   179   172 1
  189   180   179 1
  190   181   179 1
  191   182   179 1
  192   183   178 1
  193   184   178 1
  194   185   178 1
  195   186   177 1
  196   187   177 1
  197   188   177 1
  198   189   176 1
  199   190   176 1
  200   191   176 1
  201   192   175 1
  202   193   175 1
  203   194   175 1
  204   195   160 1
  205   196   160 1
  206   197   158 1
  207   198   158 1
  208   199   158 1
  209   200   157 1
  210   201   157 1
  211   202   157 1
  212   203   156 1
  213   204   156 1
  214   205   156 1
  215   206   155 1
  216   207   155 1
  217   208   155 1
  218   209   154 1
  219   210   154 1
  220   211   154 1
  221   212   141 1
  222   213   146 1
  223   214   145 1
  224   215   142 1
  225   216   142 1
  226   217   174 1
  227   218   173 1
  228   219   171 1
  229   220   170 1
  230   221   169 1
  231   222   140 1
  232   223   167 1
  233   224   166 1
  234   225   165 1
  235   226   163 1
  236   227   161 1
  237   228   139 1
  238   229   139 1
  239   230   153 1
  240   231   152 1
  241   232   150 1
  242   233   149 1
  243   234   148 1
  244   235   162 1
  245   65    153 1
  246   65    174 1
@<TRIPOS>SUBSTRUCTURE
      1 CLA               1 ****               0 ****  **** 
      2 LUT             138 ****               0 ****  **** 
