@<TRIPOS>MOLECULE
Cpptraj generated mol2 file.
  235   246     2     0     0
SMALL
USER_CHARGES


@<TRIPOS>ATOM
      1 CAA        78.4012   58.4079   35.3999 a2         1 CLA     -0.055900
      2 CAB        78.2360   62.0611   44.4602 c8         1 CLA     -0.148500
      3 CAC        71.4232   57.7048   43.8727 a2         1 CLA     -0.012600
      4 CAD        74.4440   55.5920   36.6626 ck         1 CLA      0.398800
      5 NA         77.3239   58.9415   38.7491 ns         1 CLA     -0.225500
      6 CBA        79.6742   58.3946   34.4819 a2         1 CLA     -0.135000
      7 CBB        79.3984   62.0743   45.2386 c0         1 CLA     -0.395200
      8 CBC        71.6195   56.2493   44.3110 a3         1 CLA     -0.037700
      9 CBD        75.8877   56.1611   36.4178 a1         1 CLA     -0.053900
     10 NB         76.9958   60.5320   41.4005 nm         1 CLA     -0.295700
     11 OBD        73.8726   54.7774   35.9162 o2         1 CLA     -0.494600
     12 CGA        80.2472   56.9780   34.2468 c4         1 CLA      0.827000
     13 CGD        76.9580   55.0891   36.3919 c4         1 CLA      0.655300
     14 ND         74.6050   57.7967   39.3925 nm         1 CLA     -0.291600
     15 CED        77.9840   53.4398   37.5966 a3         1 CLA      0.005400
     16 CHA        76.0562   57.3361   37.4556 cs         1 CLA     -0.123800
     17 CHB        78.8565   60.5757   39.7070 aa         1 CLA     -0.291900
     18 CHC        75.6853   60.6221   43.4368 aa         1 CLA     -0.090400
     19 CHD        72.8749   57.4064   41.0692 aa         1 CLA     -0.052000
     20 CMA        80.7526   58.6654   38.1713 a3         1 CLA     -0.230700
     21 CMB        80.2603   62.1303   41.9334 a3         1 CLA     -0.180800
     22 CMC        73.5201   59.7739   45.4688 a3         1 CLA     -0.134000
     23 CMD        71.7410   55.3836   38.8526 a3         1 CLA     -0.141100
     24 C1         81.9523   55.4535   35.0461 a2         1 CLA      0.023000
     25 C1A        77.2213   58.1364   37.6564 ac         1 CLA     -0.015100
     26 C1B        78.2254   60.8946   40.9697 cr         1 CLA      0.054700
     27 C1C        74.5867   59.7628   43.1084 cn         1 CLA     -0.005600
     28 C1D        73.5126   57.0880   39.8577 ap         1 CLA     -0.047300
     29 O1A        80.0177   56.1930   33.3296 o2         1 CLA     -0.610800
     30 O1D        77.7581   55.0241   35.4874 o2         1 CLA     -0.558200
     31 C2         82.2682   55.1565   36.4702 c8         1 CLA     -0.325100
     32 C2A        78.5688   58.1328   36.8984 a1         1 CLA      0.098600
     33 C2B        78.9126   61.6607   42.0341 cb         1 CLA      0.088500
     34 C2C        73.5103   59.3800   44.0161 cb         1 CLA      0.053700
     35 C2D        73.0215   56.1551   38.8332 cb         1 CLA      0.058900
     36 O2A        81.2204   56.7368   35.1910 o1         1 CLA     -0.437200
     37 O2D        76.9022   54.3967   37.5135 o1         1 CLA     -0.357600
     38 C3         82.9253   54.1142   36.8063 c5         1 CLA      0.031200
     39 C3A        79.4150   59.2269   37.6900 a1         1 CLA      0.166800
     40 C3B        78.0155   61.6231   43.1092 cb         1 CLA      0.035000
     41 C3C        72.6620   58.4651   43.3687 cb         1 CLA     -0.089900
     42 C3D        74.0382   56.1711   37.9506 cb         1 CLA     -0.035900
     43 C4         82.3765   52.7824   37.2519 a3         1 CLA     -0.053300
     44 C4A        78.4688   59.6299   38.7494 ac         1 CLA      0.001800
     45 C4B        76.8451   60.8926   42.7211 cn         1 CLA     -0.020900
     46 C4C        73.3116   58.3693   42.0147 cr         1 CLA     -0.044400
     47 C4D        74.9812   57.2197   38.2940 c6         1 CLA     -0.046000
     48 C5         84.4681   54.1482   36.8265 a2         1 CLA     -0.070400
     49 C6         85.1931   55.3607   37.4239 a2         1 CLA      0.043900
     50 C7         85.1795   55.4307   38.9757 a2         1 CLA     -0.150000
     51 C8         85.9198   56.7435   39.5761 a1         1 CLA      0.064200
     52 C9         87.3921   56.8021   39.1997 a3         1 CLA     -0.259300
     53 C10        85.7726   56.9964   41.0958 a2         1 CLA     -0.071900
     54 C11        84.4420   57.6134   41.5420 a2         1 CLA      0.014500
     55 C12        84.5016   58.4281   42.8222 a2         1 CLA     -0.112100
     56 C13        85.0655   57.6255   44.0513 a1         1 CLA      0.089200
     57 C14        84.3576   56.3877   44.4455 a3         1 CLA     -0.239100
     58 C15        85.3745   58.6510   45.2381 a2         1 CLA     -0.102200
     59 C16        84.0510   59.3569   45.7271 a2         1 CLA      0.023900
     60 C17        84.4354   60.3454   46.8625 a2         1 CLA     -0.105700
     61 C18        83.3247   61.3905   47.2491 a1         1 CLA      0.206800
     62 C19        81.9347   60.8905   47.8668 a3         1 CLA     -0.280100
     63 C20        83.8744   62.3551   48.3911 a3         1 CLA     -0.280100
     64 NC         74.4302   59.0991   41.8801 nx         1 CLA     -0.309200
     65 MG         75.7090   59.3128   40.2039 mg         1 CLA      0.895000
     66 HMD3       71.7160   54.8775   37.8790 dc         1 CLA      0.064300
     67 HMD2       71.6571   54.7050   39.6382 dc         1 CLA      0.064300
     68 HMD1       70.8818   56.0073   38.8358 dc         1 CLA      0.064300
     69 HMC3       73.1404   60.7460   45.6151 dc         1 CLA      0.052100
     70 HMC2       72.9011   59.0868   46.0449 dc         1 CLA      0.052100
     71 HMC1       74.5329   59.8803   45.8649 dc         1 CLA      0.052100
     72 HMB3       80.5138   62.4977   40.9005 dc         1 CLA      0.063600
     73 HMB2       80.4407   62.9869   42.6383 dc         1 CLA      0.063600
     74 HMB1       80.9881   61.3348   41.9854 dc         1 CLA      0.063600
     75 HMA3       80.7304   57.9556   38.9894 dc         1 CLA      0.058300
     76 HMA2       81.2852   58.3599   37.3059 dc         1 CLA      0.058300
     77 HMA1       81.2856   59.5352   38.5879 dc         1 CLA      0.058300
     78 HED3       77.6985   52.5973   38.3009 dc         1 CLA      0.079300
     79 HED2       78.0249   52.9196   36.6270 dc         1 CLA      0.079300
     80 HED1       78.9116   53.9144   37.8981 dc         1 CLA      0.079300
     81 HBC3       70.7452   55.7024   44.6184 dc         1 CLA      0.016300
     82 HBC2       71.9992   55.6356   43.4938 dc         1 CLA      0.016300
     83 HBC1       72.3380   56.2131   45.1333 dc         1 CLA      0.016300
     84 HBB2       79.4613   62.2488   46.3582 da         1 CLA      0.183000
     85 HBB1       80.2899   61.6581   44.8504 da         1 CLA      0.183000
     86 HBA2       79.2893   58.6848   33.4626 dc         1 CLA      0.029400
     87 HBA1       80.4023   59.0151   34.9625 dc         1 CLA      0.029400
     88 HAC2       70.9977   58.2535   44.7272 dc         1 CLA      0.029300
     89 HAC1       70.6853   57.7374   43.0966 dc         1 CLA      0.029300
     90 HAA2       77.6018   57.7618   34.9517 dc         1 CLA      0.028700
     91 HAA1       77.9701   59.4574   35.3248 dc         1 CLA      0.028700
     92 H203       84.0649   61.7472   49.2565 dc         1 CLA      0.065600
     93 H202       84.7427   62.8915   48.0403 dc         1 CLA      0.065600
     94 H201       83.1819   63.1084   48.6746 dc         1 CLA      0.065600
     95 H193       81.3758   61.8180   47.9148 dc         1 CLA      0.065600
     96 H192       81.4786   60.2343   47.1569 dc         1 CLA      0.065600
     97 H191       82.0544   60.4376   48.9066 dc         1 CLA      0.065600
     98 H172       84.7279   59.8189   47.7701 dc         1 CLA      0.027600
     99 H171       85.3083   60.9568   46.6335 dc         1 CLA      0.027600
    100 H162       83.6910   59.9641   44.8691 dc         1 CLA      0.002900
    101 H161       83.2746   58.6750   46.0027 dc         1 CLA      0.002900
    102 H152       85.8566   58.2204   46.1681 dc         1 CLA      0.029100
    103 H151       86.1134   59.4136   44.8868 dc         1 CLA      0.029100
    104 H143       83.2796   56.6921   44.5409 dc         1 CLA      0.063600
    105 H142       84.3009   55.7486   43.6205 dc         1 CLA      0.063600
    106 H141       84.6915   55.9833   45.4417 dc         1 CLA      0.063600
    107 H122       85.3155   59.1925   42.7146 dc         1 CLA      0.032500
    108 H121       83.5668   58.9149   43.0299 dc         1 CLA      0.032500
    109 H112       84.0701   58.3459   40.8091 dc         1 CLA      0.006600
    110 H111       83.7219   56.7869   41.6251 dc         1 CLA      0.006600
    111 H102       85.8700   56.0520   41.6225 dc         1 CLA      0.024100
    112 H101       86.5487   57.6740   41.5627 dc         1 CLA      0.024100
    113 HHD        72.1080   56.6786   41.3486 da         1 CLA      0.174300
    114 HHC        75.8805   60.9415   44.4657 da         1 CLA      0.136800
    115 HHB        79.8899   60.9550   39.4358 da         1 CLA      0.138300
    116 HBD        75.7804   56.5910   35.3840 dc         1 CLA      0.107700
    117 HAB        77.3332   62.4585   44.9683 da         1 CLA      0.155200
    118 H93        87.5590   56.3765   38.2298 dc         1 CLA      0.069500
    119 H92        87.6966   57.8100   39.1920 dc         1 CLA      0.069500
    120 H91        87.8913   56.1994   39.9638 dc         1 CLA      0.069500
    121 H8         85.3527   57.5415   39.0371 dc         1 CLA      0.029300
    122 H72        84.1531   55.4360   39.3604 dc         1 CLA      0.044400
    123 H71        85.7190   54.5700   39.4354 dc         1 CLA      0.044400
    124 H62        86.2306   55.2956   37.0936 dc         1 CLA      0.015600
    125 H61        84.8142   56.2866   36.9945 dc         1 CLA      0.015600
    126 H52        84.8942   53.3388   37.3931 dc         1 CLA      0.033200
    127 H51        84.9152   54.1033   35.8489 dc         1 CLA      0.033200
    128 H43        82.6551   52.6241   38.2726 dc         1 CLA      0.037000
    129 H42        81.2915   53.0613   37.2009 dc         1 CLA      0.037000
    130 H41        82.7608   51.9056   36.7264 dc         1 CLA      0.037000
    131 H3A        79.6201   60.0857   37.0220 dc         1 CLA      0.041100
    132 H2A        78.9265   57.1093   37.0986 dc         1 CLA      0.083100
    133 H2         81.9597   55.8748   37.2640 da         1 CLA      0.180900
    134 H18        83.0382   62.0426   46.4427 dc         1 CLA     -0.003900
    135 H13        86.1163   57.2961   43.7678 dc         1 CLA      0.019700
    136 H12        81.4530   54.6374   34.6926 dc         1 CLA      0.120400
    137 H11        82.8973   55.6432   34.4869 dc         1 CLA      0.120400
    138 C1         67.8355   61.8704   50.8468 Z1         2 LUT      0.509236
    139 C2         66.5828   61.7326   51.6376 Z2         2 LUT     -0.434695
    140 C3         65.7644   63.0584   51.7917 Z3         2 LUT      0.437453
    141 O3         65.9724   63.6889   53.0588 S1         2 LUT     -0.547129
    142 C4         66.0922   64.0874   50.6489 Z4         2 LUT     -0.468603
    143 C5         66.8415   63.6085   49.4288 Z5         2 LUT      0.279246
    144 C6         67.6844   62.5812   49.4861 Z6         2 LUT     -0.305473
    145 C7         68.3314   61.9404   48.3197 Z7         2 LUT      0.069402
    146 C8         69.0301   62.5844   47.3246 Z8         2 LUT     -0.191631
    147 C9         69.6192   62.0321   46.2133 Z9         2 LUT      0.196698
    148 C10        70.5278   62.7255   45.4481 Y1         2 LUT     -0.208611
    149 C11        71.2403   62.4297   44.2891 Y2         2 LUT      0.030784
    150 C12        72.3417   63.1079   43.9204 Y3         2 LUT     -0.220316
    151 C13        73.0981   62.9115   42.6389 Y4         2 LUT      0.215937
    152 C14        74.2601   63.6950   42.5473 Y5         2 LUT     -0.185793
    153 C15        75.2413   63.6962   41.5556 Y6         2 LUT     -0.057835
    154 C16        68.4849   60.3940   50.7913 Y7         2 LUT     -0.405615
    155 C17        68.8096   62.6982   51.7749 Y7         2 LUT     -0.405615
    156 C18        66.3797   64.4038   48.1914 Y9         2 LUT     -0.369639
    157 C19        69.4535   60.5314   45.8007 W1         2 LUT     -0.333362
    158 C20        72.7100   61.8989   41.6022 W2         2 LUT     -0.323439
    159 C21        86.4783   65.1925   35.7165 Z1         2 LUT      0.406104
    160 C22        87.3023   64.8543   34.4648 Z2         2 LUT     -0.404965
    161 C23        87.5961   65.8913   33.4532 Z3         2 LUT      0.391255
    162 O23        88.4694   65.4991   32.3682 S1         2 LUT     -0.528210
    163 C24        86.3811   66.4518   33.0600 W6         2 LUT     -0.258361
    164 C25        85.2015   66.4229   33.7746 Z5         2 LUT      0.133546
    165 C26        85.1172   65.6676   35.1627 W8         2 LUT     -0.147008
    166 C27        84.2406   66.3231   36.1986 Z7         2 LUT      0.023843
    167 C28        83.4335   65.7180   37.0823 Z8         2 LUT     -0.216987
    168 C29        82.5609   66.3577   38.0851 Z9         2 LUT      0.206524
    169 C30        81.5164   65.6776   38.5304 Y1         2 LUT     -0.215556
    170 C31        80.8381   65.8871   39.7059 Y2         2 LUT      0.025142
    171 C32        79.6038   65.1944   39.8822 Y3         2 LUT     -0.212209
    172 C33        78.6847   65.2346   40.9662 Y4         2 LUT      0.240937
    173 C34        77.4750   64.5454   40.8023 Y5         2 LUT     -0.218862
    174 C35        76.3726   64.5027   41.7301 Y6         2 LUT     -0.023547
    175 C36        87.2551   66.2857   36.4562 Y7         2 LUT     -0.393485
    176 C37        86.4165   63.9546   36.6459 Y7         2 LUT     -0.393485
    177 C38        84.0081   67.0944   33.3312 Y9         2 LUT     -0.387526
    178 C39        83.1397   67.5047   38.7447 W1         2 LUT     -0.322618
    179 C40        79.1324   66.0075   42.2254 W2         2 LUT     -0.358472
    180 H403       79.5055   67.0059   42.0147 R7         2 LUT      0.097720
    181 H402       78.3976   66.1083   43.0435 R7         2 LUT      0.097720
    182 H401       80.0342   65.5299   42.6218 R7         2 LUT      0.097720
    183 H393       84.2255   67.2698   38.8997 R4         2 LUT      0.082505
    184 H392       83.0981   68.3503   38.1215 R4         2 LUT      0.082505
    185 H391       82.7676   67.8250   39.7322 R4         2 LUT      0.082505
    186 H383       83.2772   66.3494   33.3177 R1         2 LUT      0.104030
    187 H382       83.6930   67.9381   33.9318 R1         2 LUT      0.104030
    188 H381       84.1107   67.6035   32.3567 R1         2 LUT      0.104030
    189 H373       85.9614   64.1915   37.6316 T4         2 LUT      0.089537
    190 H372       85.7924   63.1771   36.1479 T4         2 LUT      0.089537
    191 H371       87.4359   63.5339   36.8289 T4         2 LUT      0.089537
    192 H363       88.2588   65.9472   36.5748 T4         2 LUT      0.089537
    193 H362       87.2013   67.1852   35.7933 T4         2 LUT      0.089537
    194 H361       86.8190   66.4954   37.4093 T4         2 LUT      0.089537
    195 H222       88.2696   64.5007   34.8086 U2         2 LUT      0.127376
    196 H221       86.8641   64.0572   33.9115 U2         2 LUT      0.127376
    197 H203       72.3711   60.9839   42.0628 R7         2 LUT      0.087068
    198 H202       71.8475   62.3659   41.1509 R7         2 LUT      0.087068
    199 H201       73.4706   61.7720   40.8229 R7         2 LUT      0.087068
    200 H193       70.3371   60.1788   45.2890 R4         2 LUT      0.089716
    201 H192       69.1351   59.8584   46.6163 R4         2 LUT      0.089716
    202 H191       68.6636   60.4766   45.0754 R4         2 LUT      0.089716
    203 H183       65.2715   64.6619   48.1226 R1         2 LUT      0.094572
    204 H182       66.9169   65.3806   48.1920 R1         2 LUT      0.094572
    205 H181       66.5279   63.8464   47.2908 R1         2 LUT      0.094572
    206 H173       69.5408   63.1919   51.1413 T4         2 LUT      0.093752
    207 H172       68.3756   63.3913   52.4148 T4         2 LUT      0.093752
    208 H171       69.3311   62.0548   52.4917 T4         2 LUT      0.093752
    209 H163       68.1020   59.9041   49.9597 T4         2 LUT      0.093752
    210 H162       69.5542   60.4450   50.5912 T4         2 LUT      0.093752
    211 H161       68.2875   59.8412   51.6680 T4         2 LUT      0.093752
    212 HO3        65.6645   63.1245   53.7426 Q1         2 LUT      0.300121
    213 H8         69.2452   63.6390   47.4547 U7         2 LUT      0.080784
    214 H7         68.2205   60.8968   48.1670 U6         2 LUT      0.042190
    215 H42        65.1037   64.3620   50.3205 U5         2 LUT      0.145166
    216 H41        66.5670   65.0723   50.8754 U5         2 LUT      0.145166
    217 H35        76.3701   65.1639   42.5587 T3         2 LUT      0.077919
    218 H34        77.4229   63.9116   39.8870 T2         2 LUT      0.073626
    219 H32        79.3970   64.6089   39.0574 T1         2 LUT      0.092510
    220 H31        81.1920   66.5488   40.4053 U9         2 LUT      0.070048
    221 H30        81.1781   64.8695   37.8566 U8         2 LUT      0.085442
    222 H3         64.6574   62.9052   51.6898 U3         2 LUT     -0.031596
    223 H28        83.2468   64.7299   36.8221 U7         2 LUT      0.084728
    224 H27        84.4355   67.3874   36.2905 U6         2 LUT      0.087291
    225 H26        84.6635   64.7386   34.9165 Q6         2 LUT      0.075325
    226 H24        86.5389   67.1084   32.1598 Q5         2 LUT      0.094482
    227 H23        88.2571   66.6517   33.9805 U3         2 LUT     -0.024869
    228 H22        65.8896   61.0451   51.1220 U2         2 LUT      0.127376
    229 H21        66.7153   61.3048   52.5824 U2         2 LUT      0.127376
    230 H15        75.2307   63.0666   40.6833 T3         2 LUT      0.093200
    231 H14        74.4446   64.2658   43.4081 T2         2 LUT      0.068865
    232 H12        72.5921   63.9432   44.6381 T1         2 LUT      0.095507
    233 H11        70.8661   61.5574   43.7500 U9         2 LUT      0.068930
    234 H10        70.6724   63.7137   45.6666 U8         2 LUT      0.083911
    235 H1         88.0082   64.9350   31.6770 Q1         2 LUT      0.297311
@<TRIPOS>BOND
    1     6     1 1
    2     7     2 1
    3     8     3 1
    4     9     4 1
    5    11     4 1
    6    12     6 1
    7    13     9 1
    8    16     9 1
    9    25     5 1
   10    25    16 1
   11    26    10 1
   12    26    17 1
   13    27    18 1
   14    28    14 1
   15    28    19 1
   16    29    12 1
   17    30    13 1
   18    31    24 1
   19    32     1 1
   20    32    25 1
   21    33    21 1
   22    33    26 1
   23    34    22 1
   24    34    27 1
   25    35    23 1
   26    35    28 1
   27    36    12 1
   28    36    24 1
   29    37    13 1
   30    37    15 1
   31    38    31 1
   32    39    20 1
   33    39    32 1
   34    40     2 1
   35    40    33 1
   36    41     3 1
   37    41    34 1
   38    42     4 1
   39    42    35 1
   40    43    38 1
   41    44     5 1
   42    44    17 1
   43    44    39 1
   44    45    10 1
   45    45    18 1
   46    45    40 1
   47    46    19 1
   48    46    41 1
   49    47    14 1
   50    47    16 1
   51    47    42 1
   52    48    38 1
   53    49    48 1
   54    50    49 1
   55    51    50 1
   56    52    51 1
   57    53    51 1
   58    54    53 1
   59    55    54 1
   60    56    55 1
   61    57    56 1
   62    58    56 1
   63    59    58 1
   64    60    59 1
   65    61    60 1
   66    62    61 1
   67    63    61 1
   68    64    27 1
   69    64    46 1
   70    65     5 1
   71    65    10 1
   72    65    64 1
   73    65    14 1
   74    66    23 1
   75    67    23 1
   76    68    23 1
   77    69    22 1
   78    70    22 1
   79    71    22 1
   80    72    21 1
   81    73    21 1
   82    74    21 1
   83    75    20 1
   84    76    20 1
   85    77    20 1
   86    78    15 1
   87    79    15 1
   88    80    15 1
   89    81     8 1
   90    82     8 1
   91    83     8 1
   92    84     7 1
   93    85     7 1
   94    86     6 1
   95    87     6 1
   96    88     3 1
   97    89     3 1
   98    90     1 1
   99    91     1 1
  100    92    63 1
  101    93    63 1
  102    94    63 1
  103    95    62 1
  104    96    62 1
  105    97    62 1
  106    98    60 1
  107    99    60 1
  108   100    59 1
  109   101    59 1
  110   102    58 1
  111   103    58 1
  112   104    57 1
  113   105    57 1
  114   106    57 1
  115   107    55 1
  116   108    55 1
  117   109    54 1
  118   110    54 1
  119   111    53 1
  120   112    53 1
  121   113    19 1
  122   114    18 1
  123   115    17 1
  124   116     9 1
  125   117     2 1
  126   118    52 1
  127   119    52 1
  128   120    52 1
  129   121    51 1
  130   122    50 1
  131   123    50 1
  132   124    49 1
  133   125    49 1
  134   126    48 1
  135   127    48 1
  136   128    43 1
  137   129    43 1
  138   130    43 1
  139   131    39 1
  140   132    32 1
  141   133    31 1
  142   134    61 1
  143   135    56 1
  144   136    24 1
  145   137    24 1
  146   139   138 1
  147   140   139 1
  148   141   140 1
  149   142   140 1
  150   143   142 1
  151   144   138 1
  152   144   143 1
  153   145   144 1
  154   146   145 1
  155   147   146 1
  156   148   147 1
  157   149   148 1
  158   150   149 1
  159   151   150 1
  160   152   151 1
  161   153   152 1
  162   154   138 1
  163   155   138 1
  164   156   143 1
  165   157   147 1
  166   158   151 1
  167   160   159 1
  168   161   160 1
  169   162   161 1
  170   163   161 1
  171   164   163 1
  172   165   159 1
  173   165   164 1
  174   166   165 1
  175   167   166 1
  176   168   167 1
  177   169   168 1
  178   170   169 1
  179   171   170 1
  180   172   171 1
  181   173   172 1
  182   174   153 1
  183   174   173 1
  184   175   159 1
  185   176   159 1
  186   177   164 1
  187   178   168 1
  188   179   172 1
  189   180   179 1
  190   181   179 1
  191   182   179 1
  192   183   178 1
  193   184   178 1
  194   185   178 1
  195   186   177 1
  196   187   177 1
  197   188   177 1
  198   189   176 1
  199   190   176 1
  200   191   176 1
  201   192   175 1
  202   193   175 1
  203   194   175 1
  204   195   160 1
  205   196   160 1
  206   197   158 1
  207   198   158 1
  208   199   158 1
  209   200   157 1
  210   201   157 1
  211   202   157 1
  212   203   156 1
  213   204   156 1
  214   205   156 1
  215   206   155 1
  216   207   155 1
  217   208   155 1
  218   209   154 1
  219   210   154 1
  220   211   154 1
  221   212   141 1
  222   213   146 1
  223   214   145 1
  224   215   142 1
  225   216   142 1
  226   217   174 1
  227   218   173 1
  228   219   171 1
  229   220   170 1
  230   221   169 1
  231   222   140 1
  232   223   167 1
  233   224   166 1
  234   225   165 1
  235   226   163 1
  236   227   161 1
  237   228   139 1
  238   229   139 1
  239   230   153 1
  240   231   152 1
  241   232   150 1
  242   233   149 1
  243   234   148 1
  244   235   162 1
  245   65    153 1
  246   65    174 1
@<TRIPOS>SUBSTRUCTURE
      1 CLA               1 ****               0 ****  **** 
      2 LUT             138 ****               0 ****  **** 
