@<TRIPOS>MOLECULE
Cpptraj generated mol2 file.
  235   246     2     0     0
SMALL
USER_CHARGES


@<TRIPOS>ATOM
      1 CAA        77.4206   58.4802   35.0518 a2         1 CLA     -0.055900
      2 CAB        78.0333   63.0248   43.6346 c8         1 CLA     -0.148500
      3 CAC        71.1880   58.4668   43.7828 a2         1 CLA     -0.012600
      4 CAD        73.7864   55.5838   36.8238 ck         1 CLA      0.398800
      5 NA         76.6697   59.0903   38.4568 ns         1 CLA     -0.225500
      6 CBA        78.6792   58.4946   34.1498 a2         1 CLA     -0.135000
      7 CBB        77.2173   63.6046   44.5053 c0         1 CLA     -0.395200
      8 CBC        71.3904   56.9097   43.7526 a3         1 CLA     -0.037700
      9 CBD        75.1251   56.2288   36.2492 a1         1 CLA     -0.053900
     10 NB         76.6309   60.7820   40.8819 nm         1 CLA     -0.295700
     11 OBD        73.2610   54.5513   36.3978 o2         1 CLA     -0.494600
     12 CGA        79.2722   57.1554   33.6256 c4         1 CLA      0.827000
     13 CGD        76.2045   55.1045   36.1006 c4         1 CLA      0.655300
     14 ND         73.9731   58.0985   39.1635 nm         1 CLA     -0.291600
     15 CED        77.0766   53.0652   36.7916 a3         1 CLA      0.005400
     16 CHA        75.4011   57.2833   37.3399 cs         1 CLA     -0.123800
     17 CHB        78.4650   60.6275   39.2610 aa         1 CLA     -0.291900
     18 CHC        75.4914   61.1114   43.0097 aa         1 CLA     -0.090400
     19 CHD        72.1970   58.2451   40.7508 aa         1 CLA     -0.052000
     20 CMA        80.0896   58.6780   37.4423 a3         1 CLA     -0.230700
     21 CMB        80.0292   62.4072   41.3264 a3         1 CLA     -0.180800
     22 CMC        73.3750   60.4121   45.2118 a3         1 CLA     -0.134000
     23 CMD        70.9008   56.0119   38.7802 a3         1 CLA     -0.141100
     24 C1         80.8235   55.4249   34.0246 a2         1 CLA      0.023000
     25 C1A        76.5550   58.1140   37.4051 ac         1 CLA     -0.015100
     26 C1B        77.9296   61.0590   40.4141 cr         1 CLA      0.054700
     27 C1C        74.3326   60.3360   42.7598 cn         1 CLA     -0.005600
     28 C1D        72.7249   57.6995   39.6156 ap         1 CLA     -0.047300
     29 O1A        79.1898   56.7200   32.4922 o2         1 CLA     -0.610800
     30 O1D        76.9241   54.9714   35.0412 o2         1 CLA     -0.558200
     31 C2         81.8394   54.9994   35.0279 c8         1 CLA     -0.325100
     32 C2A        77.7160   58.1253   36.4959 a1         1 CLA      0.098600
     33 C2B        78.5987   61.9333   41.3979 cb         1 CLA      0.088500
     34 C2C        73.3260   59.9965   43.7695 cb         1 CLA      0.053700
     35 C2D        72.2188   56.6664   38.7187 cb         1 CLA      0.058900
     36 O2A        80.1130   56.6058   34.6226 o1         1 CLA     -0.437200
     37 O2D        76.3868   54.2744   37.1816 o1         1 CLA     -0.357600
     38 C3         82.8591   55.7627   35.4913 c5         1 CLA      0.031200
     39 C3A        78.6439   59.2083   37.1375 a1         1 CLA      0.166800
     40 C3B        77.6986   62.2222   42.4071 cb         1 CLA      0.035000
     41 C3C        72.4053   59.1594   43.1293 cb         1 CLA     -0.089900
     42 C3D        73.3036   56.4625   37.9002 cb         1 CLA     -0.035900
     43 C4         84.2242   55.9852   34.7772 a3         1 CLA     -0.053300
     44 C4A        77.8604   59.7157   38.3741 ac         1 CLA      0.001800
     45 C4B        76.5095   61.4521   42.0838 cn         1 CLA     -0.020900
     46 C4C        72.7915   59.0857   41.7343 cr         1 CLA     -0.044400
     47 C4D        74.2974   57.3796   38.1832 c6         1 CLA     -0.046000
     48 C5         82.7722   56.4924   36.8198 a2         1 CLA     -0.070400
     49 C6         83.5327   55.9275   37.9392 a2         1 CLA      0.043900
     50 C7         83.3269   56.8371   39.1217 a2         1 CLA     -0.150000
     51 C8         84.0460   58.2096   39.1962 a1         1 CLA      0.064200
     52 C9         85.3253   58.1583   38.4395 a3         1 CLA     -0.259300
     53 C10        84.2093   58.7526   40.6524 a2         1 CLA     -0.071900
     54 C11        82.8778   58.8117   41.3231 a2         1 CLA      0.014500
     55 C12        82.5209   60.0708   42.1211 a2         1 CLA     -0.112100
     56 C13        83.2984   60.2182   43.5162 a1         1 CLA      0.089200
     57 C14        82.8790   59.1250   44.4609 a3         1 CLA     -0.239100
     58 C15        83.1043   61.6562   44.1971 a2         1 CLA     -0.102200
     59 C16        83.7398   61.8788   45.5236 a2         1 CLA      0.023900
     60 C17        83.8336   63.4348   45.7860 a2         1 CLA     -0.105700
     61 C18        84.5657   63.8023   47.0842 a1         1 CLA      0.206800
     62 C19        84.9619   65.2975   47.2312 a3         1 CLA     -0.280100
     63 C20        83.6589   63.4269   48.3465 a3         1 CLA     -0.280100
     64 NC         73.9393   59.7740   41.5603 nx         1 CLA     -0.309200
     65 MG         75.2161   59.6221   39.8771 mg         1 CLA      0.895000
     66 HMD3       70.0342   56.7559   38.7564 dc         1 CLA      0.064300
     67 HMD2       70.7032   55.2493   37.9869 dc         1 CLA      0.064300
     68 HMD1       70.8973   55.5645   39.7280 dc         1 CLA      0.064300
     69 HMC3       72.4896   60.2367   45.7981 dc         1 CLA      0.052100
     70 HMC2       74.2139   59.9028   45.6604 dc         1 CLA      0.052100
     71 HMC1       73.5683   61.4682   45.3730 dc         1 CLA      0.052100
     72 HMB3       79.9024   63.4108   41.1100 dc         1 CLA      0.063600
     73 HMB2       80.4033   62.0934   42.2635 dc         1 CLA      0.063600
     74 HMB1       80.5379   61.8956   40.4689 dc         1 CLA      0.063600
     75 HMA3       79.9249   57.8049   38.0550 dc         1 CLA      0.058300
     76 HMA2       80.5473   58.4383   36.4778 dc         1 CLA      0.058300
     77 HMA1       80.7239   59.4067   37.9061 dc         1 CLA      0.058300
     78 HED3       76.4783   52.5805   36.0433 dc         1 CLA      0.079300
     79 HED2       78.1423   53.1598   36.5007 dc         1 CLA      0.079300
     80 HED1       77.1237   52.3923   37.6327 dc         1 CLA      0.079300
     81 HBC3       72.3388   56.7857   44.3344 dc         1 CLA      0.016300
     82 HBC2       70.5930   56.3292   44.1185 dc         1 CLA      0.016300
     83 HBC1       71.6690   56.5844   42.7635 dc         1 CLA      0.016300
     84 HBB2       77.6977   64.2206   45.2608 da         1 CLA      0.183000
     85 HBB1       76.1100   63.5465   44.5123 da         1 CLA      0.183000
     86 HBA2       78.6294   59.0276   33.2334 dc         1 CLA      0.029400
     87 HBA1       79.3947   59.0682   34.6876 dc         1 CLA      0.029400
     88 HAC2       71.0346   58.8818   44.8134 dc         1 CLA      0.029300
     89 HAC1       70.2393   58.7418   43.2616 dc         1 CLA      0.029300
     90 HAA2       76.6642   57.8492   34.6524 dc         1 CLA      0.028700
     91 HAA1       77.0427   59.5091   35.0163 dc         1 CLA      0.028700
     92 H203       83.2092   62.4588   48.2346 dc         1 CLA      0.065600
     93 H202       84.2872   63.3384   49.1545 dc         1 CLA      0.065600
     94 H201       82.8710   64.1807   48.4446 dc         1 CLA      0.065600
     95 H193       85.8549   65.4630   46.6198 dc         1 CLA      0.065600
     96 H192       84.0948   65.8876   46.9364 dc         1 CLA      0.065600
     97 H191       85.2458   65.5729   48.1802 dc         1 CLA      0.065600
     98 H172       84.4260   63.9105   44.9768 dc         1 CLA      0.027600
     99 H171       82.8486   63.7904   45.5992 dc         1 CLA      0.027600
    100 H162       83.2644   61.3394   46.3475 dc         1 CLA      0.002900
    101 H161       84.7509   61.5163   45.4036 dc         1 CLA      0.002900
    102 H152       83.6042   62.4105   43.5959 dc         1 CLA      0.029100
    103 H151       82.0019   61.7607   44.3816 dc         1 CLA      0.029100
    104 H143       81.7978   59.2013   44.8020 dc         1 CLA      0.063600
    105 H142       83.0161   58.1444   43.9924 dc         1 CLA      0.063600
    106 H141       83.6677   59.0352   45.2811 dc         1 CLA      0.063600
    107 H122       82.7812   60.9428   41.5619 dc         1 CLA      0.032500
    108 H121       81.4573   60.0394   42.3558 dc         1 CLA      0.032500
    109 H112       82.0346   58.7369   40.5587 dc         1 CLA      0.006600
    110 H111       82.6609   57.9924   41.9118 dc         1 CLA      0.006600
    111 H102       84.9683   58.0457   41.0618 dc         1 CLA      0.024100
    112 H101       84.8439   59.6529   40.6525 dc         1 CLA      0.024100
    113 HHD        71.1163   57.9890   41.0312 da         1 CLA      0.174300
    114 HHC        75.6960   61.4927   44.1040 da         1 CLA      0.136800
    115 HHB        79.4724   60.9155   38.9910 da         1 CLA      0.138300
    116 HBD        74.8225   56.6388   35.2261 dc         1 CLA      0.107700
    117 HAB        79.1466   63.2731   43.8640 da         1 CLA      0.155200
    118 H93        85.8630   59.0503   38.6952 dc         1 CLA      0.069500
    119 H92        85.9180   57.3239   38.8021 dc         1 CLA      0.069500
    120 H91        85.3034   58.1731   37.3941 dc         1 CLA      0.069500
    121 H8         83.4135   58.9857   38.6724 dc         1 CLA      0.029300
    122 H72        82.2263   56.9563   39.2906 dc         1 CLA      0.044400
    123 H71        83.7262   56.3629   39.9809 dc         1 CLA      0.044400
    124 H62        83.1278   54.9854   38.2697 dc         1 CLA      0.015600
    125 H61        84.6335   55.7954   37.7810 dc         1 CLA      0.015600
    126 H52        83.1488   57.4924   36.5917 dc         1 CLA      0.033200
    127 H51        81.7201   56.3864   37.0666 dc         1 CLA      0.033200
    128 H43        84.6763   55.0389   34.3303 dc         1 CLA      0.037000
    129 H42        83.8507   56.4598   33.8481 dc         1 CLA      0.037000
    130 H41        84.8632   56.8006   35.1950 dc         1 CLA      0.037000
    131 H3A        78.5882   60.0873   36.4946 dc         1 CLA      0.041100
    132 H2A        78.1877   57.1431   36.4178 dc         1 CLA      0.083100
    133 H2         81.7338   54.0711   35.4884 da         1 CLA      0.180900
    134 H18        85.3856   63.1430   47.1017 dc         1 CLA     -0.003900
    135 H13        84.3531   59.9640   43.3137 dc         1 CLA      0.019700
    136 H12        80.2666   54.4833   33.8729 dc         1 CLA      0.120400
    137 H11        81.4285   55.7461   33.1835 dc         1 CLA      0.120400
    138 C1         67.1140   61.8007   51.3342 Z1         2 LUT      0.509236
    139 C2         67.0740   63.1659   52.0964 Z2         2 LUT     -0.434695
    140 C3         65.7391   63.9542   52.1576 Z3         2 LUT      0.437453
    141 O3         65.9633   65.2997   52.6116 S1         2 LUT     -0.547129
    142 C4         65.0195   63.7550   50.8022 Z4         2 LUT     -0.468603
    143 C5         65.8061   63.1452   49.6033 Z5         2 LUT      0.279246
    144 C6         66.7869   62.1953   49.8513 Z6         2 LUT     -0.305473
    145 C7         67.7597   61.7642   48.7779 Z7         2 LUT      0.069402
    146 C8         68.2818   62.5876   47.8389 Z8         2 LUT     -0.191631
    147 C9         68.9662   62.1538   46.5478 Z9         2 LUT      0.196698
    148 C10        69.9482   62.9391   46.0163 Y1         2 LUT     -0.208611
    149 C11        70.7473   62.7564   44.7801 Y2         2 LUT      0.030784
    150 C12        71.8236   63.5272   44.4035 Y3         2 LUT     -0.220316
    151 C13        72.6059   63.4509   43.1520 Y4         2 LUT      0.215937
    152 C14        73.7109   64.2352   43.0821 Y5         2 LUT     -0.185793
    153 C15        74.7465   64.4229   42.0631 Y6         2 LUT     -0.057835
    154 C16        66.0423   60.9144   51.8884 Y7         2 LUT     -0.405615
    155 C17        68.4837   61.0287   51.6456 Y7         2 LUT     -0.405615
    156 C18        65.5880   64.0711   48.4703 Y9         2 LUT     -0.369639
    157 C19        68.4102   61.0019   45.7682 W1         2 LUT     -0.333362
    158 C20        71.8378   62.8529   42.0155 W2         2 LUT     -0.323439
    159 C21        86.3766   66.2242   36.0780 Z1         2 LUT      0.406104
    160 C22        87.0599   65.5773   34.9040 Z2         2 LUT     -0.404965
    161 C23        87.1710   66.3929   33.6136 Z3         2 LUT      0.391255
    162 O23        87.4945   65.3739   32.6175 S1         2 LUT     -0.528210
    163 C24        85.8369   67.0431   33.3210 W6         2 LUT     -0.258361
    164 C25        84.7977   67.1535   34.1829 Z5         2 LUT      0.133546
    165 C26        84.8745   66.4883   35.5170 W8         2 LUT     -0.147008
    166 C27        83.9892   67.1288   36.5414 Z7         2 LUT      0.023843
    167 C28        82.8688   66.6517   37.0840 Z8         2 LUT     -0.216987
    168 C29        82.0476   67.1889   38.1403 Z9         2 LUT      0.206524
    169 C30        80.9896   66.4258   38.6078 Y1         2 LUT     -0.215556
    170 C31        80.0575   66.6814   39.7182 Y2         2 LUT      0.025142
    171 C32        78.9751   65.8764   40.0438 Y3         2 LUT     -0.212209
    172 C33        78.1081   65.9022   41.1803 Y4         2 LUT      0.240937
    173 C34        76.8813   65.2623   41.1610 Y5         2 LUT     -0.218862
    174 C35        75.8565   65.1526   42.1855 Y6         2 LUT     -0.023547
    175 C36        87.2101   67.4595   36.4736 Y7         2 LUT     -0.393485
    176 C37        86.5654   65.2835   37.3448 Y7         2 LUT     -0.393485
    177 C38        83.5725   67.9238   33.7002 Y9         2 LUT     -0.387526
    178 C39        82.5348   68.5091   38.7235 W1         2 LUT     -0.322618
    179 C40        78.5505   66.5236   42.4196 W2         2 LUT     -0.358472
    180 H403       79.3694   66.0058   42.7874 R7         2 LUT      0.097720
    181 H402       78.7449   67.5359   42.1550 R7         2 LUT      0.097720
    182 H401       77.9074   66.4782   43.1917 R7         2 LUT      0.097720
    183 H393       82.5271   69.3918   38.0295 R4         2 LUT      0.082505
    184 H392       81.9829   68.8374   39.6117 R4         2 LUT      0.082505
    185 H391       83.5166   68.5308   39.0125 R4         2 LUT      0.082505
    186 H383       83.8594   68.7717   33.1601 R1         2 LUT      0.104030
    187 H382       83.0004   67.3372   32.9363 R1         2 LUT      0.104030
    188 H381       82.8228   68.2251   34.4564 R1         2 LUT      0.104030
    189 H373       87.6230   65.0712   37.5557 T4         2 LUT      0.089537
    190 H372       86.2260   65.7484   38.2865 T4         2 LUT      0.089537
    191 H371       86.1179   64.3281   37.1364 T4         2 LUT      0.089537
    192 H363       88.2620   67.2845   36.5093 T4         2 LUT      0.089537
    193 H362       87.1344   68.2659   35.8095 T4         2 LUT      0.089537
    194 H361       86.8435   67.8951   37.4116 T4         2 LUT      0.089537
    195 H222       88.1097   65.3399   35.1196 U2         2 LUT      0.127376
    196 H221       86.6655   64.5683   34.6389 U2         2 LUT      0.127376
    197 H203       72.3514   62.9063   41.0943 R7         2 LUT      0.087068
    198 H202       71.5761   61.7310   42.0890 R7         2 LUT      0.087068
    199 H201       70.9654   63.3743   41.8398 R7         2 LUT      0.087068
    200 H193       69.1801   60.1443   45.7864 R4         2 LUT      0.089716
    201 H192       67.4942   60.6354   46.1579 R4         2 LUT      0.089716
    202 H191       68.2707   61.1855   44.6961 R4         2 LUT      0.089716
    203 H183       66.1700   64.9952   48.5801 R1         2 LUT      0.094572
    204 H182       65.6848   63.5562   47.5411 R1         2 LUT      0.094572
    205 H181       64.5599   64.4436   48.4481 R1         2 LUT      0.094572
    206 H173       68.6463   61.0632   52.7097 T4         2 LUT      0.093752
    207 H172       68.6498   60.1350   51.0850 T4         2 LUT      0.093752
    208 H171       69.3198   61.5726   51.2424 T4         2 LUT      0.093752
    209 H163       66.2467   59.8224   51.7831 T4         2 LUT      0.093752
    210 H162       65.9132   61.0837   53.0145 T4         2 LUT      0.093752
    211 H161       65.0999   61.0184   51.3559 T4         2 LUT      0.093752
    212 HO3        65.1678   65.5778   53.0533 Q1         2 LUT      0.300121
    213 H8         68.1545   63.6558   48.0321 U7         2 LUT      0.080784
    214 H7         67.8428   60.7014   48.6750 U6         2 LUT      0.042190
    215 H42        64.1324   63.0520   50.9898 U5         2 LUT      0.145166
    216 H41        64.5336   64.6550   50.4671 U5         2 LUT      0.145166
    217 H35        76.0063   65.5970   43.1256 T3         2 LUT      0.077919
    218 H34        76.5876   64.7961   40.1644 T2         2 LUT      0.073626
    219 H32        78.6353   65.1465   39.2990 T1         2 LUT      0.092510
    220 H31        80.3408   67.4474   40.4471 U9         2 LUT      0.070048
    221 H30        80.7879   65.3930   38.1980 U8         2 LUT      0.085442
    222 H3         65.2000   63.4377   52.9206 U3         2 LUT     -0.031596
    223 H28        82.6132   65.6293   36.7206 U7         2 LUT      0.084728
    224 H27        84.2264   68.0777   36.8811 U6         2 LUT      0.087291
    225 H26        84.6188   65.4864   35.4147 Q6         2 LUT      0.075325
    226 H24        85.8002   67.5341   32.3682 Q5         2 LUT      0.094482
    227 H23        88.0114   67.0508   33.7447 U3         2 LUT     -0.024869
    228 H22        67.4198   62.9626   53.1612 U2         2 LUT      0.127376
    229 H21        67.9259   63.8173   51.7785 U2         2 LUT      0.127376
    230 H15        74.6300   63.8972   41.2160 T3         2 LUT      0.093200
    231 H14        73.8179   64.8842   43.9180 T2         2 LUT      0.068865
    232 H12        72.2354   64.2241   45.0962 T1         2 LUT      0.095507
    233 H11        70.4488   62.0628   44.0701 U9         2 LUT      0.068930
    234 H10        70.2145   63.8501   46.5161 U8         2 LUT      0.083911
    235 H1         87.6607   65.9059   31.7926 Q1         2 LUT      0.297311
@<TRIPOS>BOND
    1     6     1 1
    2     7     2 1
    3     8     3 1
    4     9     4 1
    5    11     4 1
    6    12     6 1
    7    13     9 1
    8    16     9 1
    9    25     5 1
   10    25    16 1
   11    26    10 1
   12    26    17 1
   13    27    18 1
   14    28    14 1
   15    28    19 1
   16    29    12 1
   17    30    13 1
   18    31    24 1
   19    32     1 1
   20    32    25 1
   21    33    21 1
   22    33    26 1
   23    34    22 1
   24    34    27 1
   25    35    23 1
   26    35    28 1
   27    36    12 1
   28    36    24 1
   29    37    13 1
   30    37    15 1
   31    38    31 1
   32    39    20 1
   33    39    32 1
   34    40     2 1
   35    40    33 1
   36    41     3 1
   37    41    34 1
   38    42     4 1
   39    42    35 1
   40    43    38 1
   41    44     5 1
   42    44    17 1
   43    44    39 1
   44    45    10 1
   45    45    18 1
   46    45    40 1
   47    46    19 1
   48    46    41 1
   49    47    14 1
   50    47    16 1
   51    47    42 1
   52    48    38 1
   53    49    48 1
   54    50    49 1
   55    51    50 1
   56    52    51 1
   57    53    51 1
   58    54    53 1
   59    55    54 1
   60    56    55 1
   61    57    56 1
   62    58    56 1
   63    59    58 1
   64    60    59 1
   65    61    60 1
   66    62    61 1
   67    63    61 1
   68    64    27 1
   69    64    46 1
   70    65     5 1
   71    65    10 1
   72    65    64 1
   73    65    14 1
   74    66    23 1
   75    67    23 1
   76    68    23 1
   77    69    22 1
   78    70    22 1
   79    71    22 1
   80    72    21 1
   81    73    21 1
   82    74    21 1
   83    75    20 1
   84    76    20 1
   85    77    20 1
   86    78    15 1
   87    79    15 1
   88    80    15 1
   89    81     8 1
   90    82     8 1
   91    83     8 1
   92    84     7 1
   93    85     7 1
   94    86     6 1
   95    87     6 1
   96    88     3 1
   97    89     3 1
   98    90     1 1
   99    91     1 1
  100    92    63 1
  101    93    63 1
  102    94    63 1
  103    95    62 1
  104    96    62 1
  105    97    62 1
  106    98    60 1
  107    99    60 1
  108   100    59 1
  109   101    59 1
  110   102    58 1
  111   103    58 1
  112   104    57 1
  113   105    57 1
  114   106    57 1
  115   107    55 1
  116   108    55 1
  117   109    54 1
  118   110    54 1
  119   111    53 1
  120   112    53 1
  121   113    19 1
  122   114    18 1
  123   115    17 1
  124   116     9 1
  125   117     2 1
  126   118    52 1
  127   119    52 1
  128   120    52 1
  129   121    51 1
  130   122    50 1
  131   123    50 1
  132   124    49 1
  133   125    49 1
  134   126    48 1
  135   127    48 1
  136   128    43 1
  137   129    43 1
  138   130    43 1
  139   131    39 1
  140   132    32 1
  141   133    31 1
  142   134    61 1
  143   135    56 1
  144   136    24 1
  145   137    24 1
  146   139   138 1
  147   140   139 1
  148   141   140 1
  149   142   140 1
  150   143   142 1
  151   144   138 1
  152   144   143 1
  153   145   144 1
  154   146   145 1
  155   147   146 1
  156   148   147 1
  157   149   148 1
  158   150   149 1
  159   151   150 1
  160   152   151 1
  161   153   152 1
  162   154   138 1
  163   155   138 1
  164   156   143 1
  165   157   147 1
  166   158   151 1
  167   160   159 1
  168   161   160 1
  169   162   161 1
  170   163   161 1
  171   164   163 1
  172   165   159 1
  173   165   164 1
  174   166   165 1
  175   167   166 1
  176   168   167 1
  177   169   168 1
  178   170   169 1
  179   171   170 1
  180   172   171 1
  181   173   172 1
  182   174   153 1
  183   174   173 1
  184   175   159 1
  185   176   159 1
  186   177   164 1
  187   178   168 1
  188   179   172 1
  189   180   179 1
  190   181   179 1
  191   182   179 1
  192   183   178 1
  193   184   178 1
  194   185   178 1
  195   186   177 1
  196   187   177 1
  197   188   177 1
  198   189   176 1
  199   190   176 1
  200   191   176 1
  201   192   175 1
  202   193   175 1
  203   194   175 1
  204   195   160 1
  205   196   160 1
  206   197   158 1
  207   198   158 1
  208   199   158 1
  209   200   157 1
  210   201   157 1
  211   202   157 1
  212   203   156 1
  213   204   156 1
  214   205   156 1
  215   206   155 1
  216   207   155 1
  217   208   155 1
  218   209   154 1
  219   210   154 1
  220   211   154 1
  221   212   141 1
  222   213   146 1
  223   214   145 1
  224   215   142 1
  225   216   142 1
  226   217   174 1
  227   218   173 1
  228   219   171 1
  229   220   170 1
  230   221   169 1
  231   222   140 1
  232   223   167 1
  233   224   166 1
  234   225   165 1
  235   226   163 1
  236   227   161 1
  237   228   139 1
  238   229   139 1
  239   230   153 1
  240   231   152 1
  241   232   150 1
  242   233   149 1
  243   234   148 1
  244   235   162 1
  245   65    153 1
  246   65    174 1
@<TRIPOS>SUBSTRUCTURE
      1 CLA               1 ****               0 ****  **** 
      2 LUT             138 ****               0 ****  **** 
