@<TRIPOS>MOLECULE
Cpptraj generated mol2 file.
  235   246     2     0     0
SMALL
USER_CHARGES


@<TRIPOS>ATOM
      1 CAA        78.5044   59.2341   33.8684 a2         1 CLA     -0.055900
      2 CAB        79.1591   62.6547   42.8805 c8         1 CLA     -0.148500
      3 CAC        71.9206   59.2496   42.6133 a2         1 CLA     -0.012600
      4 CAD        74.2317   56.5925   35.1351 ck         1 CLA      0.398800
      5 NA         77.6029   59.3594   37.2825 ns         1 CLA     -0.225500
      6 CBA        79.7433   59.1248   32.8642 a2         1 CLA     -0.135000
      7 CBB        78.7940   62.1602   44.0914 c0         1 CLA     -0.395200
      8 CBC        71.9807   57.7591   42.9358 a3         1 CLA     -0.037700
      9 CBD        75.6472   57.1762   34.7539 a1         1 CLA     -0.053900
     10 NB         77.7893   60.8935   39.8580 nm         1 CLA     -0.295700
     11 OBD        73.5990   55.8926   34.3815 o2         1 CLA     -0.494600
     12 CGA        80.2338   57.7156   32.5750 c4         1 CLA      0.827000
     13 CGD        76.5668   56.0317   34.4354 c4         1 CLA      0.655300
     14 ND         74.8489   58.6134   38.0229 nm         1 CLA     -0.291600
     15 CED        77.3379   53.8791   35.0186 a3         1 CLA      0.005400
     16 CHA        76.1855   57.9076   35.9959 cs         1 CLA     -0.123800
     17 CHB        79.5692   60.6290   38.2585 aa         1 CLA     -0.291900
     18 CHC        76.5193   61.3010   41.8822 aa         1 CLA     -0.090400
     19 CHD        72.9931   58.8118   39.5734 aa         1 CLA     -0.052000
     20 CMA        80.9779   58.4467   36.5670 a3         1 CLA     -0.230700
     21 CMB        81.2095   62.3660   40.2666 a3         1 CLA     -0.180800
     22 CMC        74.3769   60.9906   44.0394 a3         1 CLA     -0.134000
     23 CMD        71.5419   56.8941   37.4897 a3         1 CLA     -0.141100
     24 C1         81.4184   55.8171   33.4221 a2         1 CLA      0.023000
     25 C1A        77.4149   58.5438   36.1881 ac         1 CLA     -0.015100
     26 C1B        79.1490   61.0606   39.5087 cr         1 CLA      0.054700
     27 C1C        75.2773   60.6743   41.5856 cn         1 CLA     -0.005600
     28 C1D        73.5246   58.3502   38.3769 ap         1 CLA     -0.047300
     29 O1A        79.9916   57.1695   31.5151 o2         1 CLA     -0.610800
     30 O1D        77.2850   56.0241   33.4403 o2         1 CLA     -0.558200
     31 C2         81.6588   55.1947   34.7709 c8         1 CLA     -0.325100
     32 C2A        78.6819   58.5442   35.2122 a1         1 CLA      0.098600
     33 C2B        79.8483   61.9393   40.4631 cb         1 CLA      0.088500
     34 C2C        74.1859   60.5403   42.5675 cb         1 CLA      0.053700
     35 C2D        72.9219   57.4693   37.4019 cb         1 CLA      0.058900
     36 O2A        80.9462   57.2225   33.6700 o1         1 CLA     -0.437200
     37 O2D        76.5691   55.0395   35.4035 o1         1 CLA     -0.357600
     38 C3         82.1548   53.9745   35.0584 c5         1 CLA      0.031200
     39 C3A        79.7589   59.2677   36.1404 a1         1 CLA      0.166800
     40 C3B        78.9668   62.0419   41.5882 cb         1 CLA      0.035000
     41 C3C        73.1532   59.7682   41.9437 cb         1 CLA     -0.089900
     42 C3D        73.9169   57.2464   36.3953 cb         1 CLA     -0.035900
     43 C4         81.1491   52.8931   35.3287 a3         1 CLA     -0.053300
     44 C4A        78.9338   59.7480   37.3425 ac         1 CLA      0.001800
     45 C4B        77.6867   61.3700   41.1290 cn         1 CLA     -0.020900
     46 C4C        73.6386   59.5091   40.6319 cr         1 CLA     -0.044400
     47 C4D        75.0520   58.0087   36.8362 c6         1 CLA     -0.046000
     48 C5         83.6243   53.7083   35.1102 a2         1 CLA     -0.070400
     49 C6         84.5494   54.7228   35.7673 a2         1 CLA      0.043900
     50 C7         84.3754   55.0395   37.2736 a2         1 CLA     -0.150000
     51 C8         85.2505   56.2726   37.7925 a1         1 CLA      0.064200
     52 C9         86.8119   56.1107   37.5717 a3         1 CLA     -0.259300
     53 C10        84.9360   56.4362   39.3265 a2         1 CLA     -0.071900
     54 C11        83.5103   56.8373   39.5786 a2         1 CLA      0.014500
     55 C12        83.4528   57.4040   40.9950 a2         1 CLA     -0.112100
     56 C13        82.0889   57.4044   41.7460 a1         1 CLA      0.089200
     57 C14        81.0682   58.2051   40.9427 a3         1 CLA     -0.239100
     58 C15        82.2170   57.7779   43.2210 a2         1 CLA     -0.102200
     59 C16        82.4961   59.2673   43.5769 a2         1 CLA      0.023900
     60 C17        82.6521   59.4959   45.0845 a2         1 CLA     -0.105700
     61 C18        83.1972   60.8511   45.4160 a1         1 CLA      0.206800
     62 C19        82.2959   62.1530   45.1582 a3         1 CLA     -0.280100
     63 C20        83.7585   60.8067   46.8620 a3         1 CLA     -0.280100
     64 NC         74.9298   60.0393   40.4603 nx         1 CLA     -0.309200
     65 MG         76.2967   59.8403   38.8376 mg         1 CLA      0.895000
     66 HMD3       71.2775   56.6567   38.5390 dc         1 CLA      0.064300
     67 HMD2       70.8154   57.6358   37.1083 dc         1 CLA      0.064300
     68 HMD1       71.3829   55.9629   36.9476 dc         1 CLA      0.064300
     69 HMC3       74.1341   62.0057   44.1514 dc         1 CLA      0.052100
     70 HMC2       73.6262   60.4953   44.6989 dc         1 CLA      0.052100
     71 HMC1       75.2926   60.7482   44.4719 dc         1 CLA      0.052100
     72 HMB3       81.8699   61.5805   39.9103 dc         1 CLA      0.063600
     73 HMB2       81.1339   63.2182   39.5546 dc         1 CLA      0.063600
     74 HMB1       81.5871   62.8617   41.0924 dc         1 CLA      0.063600
     75 HMA3       80.6041   57.6073   37.0990 dc         1 CLA      0.058300
     76 HMA2       81.6617   58.2772   35.7270 dc         1 CLA      0.058300
     77 HMA1       81.4859   59.0266   37.3659 dc         1 CLA      0.058300
     78 HED3       77.2040   53.6569   33.9700 dc         1 CLA      0.079300
     79 HED2       78.4016   54.1003   35.1835 dc         1 CLA      0.079300
     80 HED1       77.1555   53.0198   35.6118 dc         1 CLA      0.079300
     81 HBC3       71.1102   57.4363   43.5418 dc         1 CLA      0.016300
     82 HBC2       71.9377   57.2318   41.9389 dc         1 CLA      0.016300
     83 HBC1       72.9001   57.6722   43.4656 dc         1 CLA      0.016300
     84 HBB2       78.8628   62.6497   45.0539 da         1 CLA      0.183000
     85 HBB1       78.3240   61.0998   44.1538 da         1 CLA      0.183000
     86 HBA2       79.6223   59.6705   31.9112 dc         1 CLA      0.029400
     87 HBA1       80.5362   59.7063   33.3431 dc         1 CLA      0.029400
     88 HAC2       71.7473   59.9377   43.4722 dc         1 CLA      0.029300
     89 HAC1       71.0584   59.4378   41.9985 dc         1 CLA      0.029300
     90 HAA2       77.7141   58.6728   33.4295 dc         1 CLA      0.028700
     91 HAA1       78.3686   60.2439   34.0330 dc         1 CLA      0.028700
     92 H203       84.6530   60.2585   46.8828 dc         1 CLA      0.065600
     93 H202       84.0588   61.7885   47.3239 dc         1 CLA      0.065600
     94 H201       83.0848   60.3091   47.5227 dc         1 CLA      0.065600
     95 H193       81.3260   62.0957   45.6792 dc         1 CLA      0.065600
     96 H192       82.7856   63.0250   45.5213 dc         1 CLA      0.065600
     97 H191       82.0736   62.1714   44.0553 dc         1 CLA      0.065600
     98 H172       81.6962   59.3476   45.6311 dc         1 CLA      0.027600
     99 H171       83.3117   58.7017   45.3971 dc         1 CLA      0.027600
    100 H162       83.3023   59.7514   43.0588 dc         1 CLA      0.002900
    101 H161       81.5766   59.8447   43.3361 dc         1 CLA      0.002900
    102 H152       81.3477   57.4414   43.6874 dc         1 CLA      0.029100
    103 H151       83.0248   57.2434   43.6505 dc         1 CLA      0.029100
    104 H143       81.3253   59.2310   40.9689 dc         1 CLA      0.063600
    105 H142       80.9701   57.7882   39.9318 dc         1 CLA      0.063600
    106 H141       80.0659   57.9496   41.4006 dc         1 CLA      0.063600
    107 H122       84.1064   56.9360   41.6703 dc         1 CLA      0.032500
    108 H121       83.7219   58.4749   40.8201 dc         1 CLA      0.032500
    109 H112       83.2944   57.7296   38.9377 dc         1 CLA      0.006600
    110 H111       82.8958   55.8765   39.3504 dc         1 CLA      0.006600
    111 H102       85.0967   55.5179   39.9510 dc         1 CLA      0.024100
    112 H101       85.5733   57.1885   39.7259 dc         1 CLA      0.024100
    113 HHD        71.9644   58.5211   39.6808 da         1 CLA      0.174300
    114 HHC        76.6519   61.8539   42.8163 da         1 CLA      0.136800
    115 HHB        80.6292   60.8289   38.0224 da         1 CLA      0.138300
    116 HBD        75.5152   57.8221   33.8608 dc         1 CLA      0.107700
    117 HAB        79.6383   63.6295   43.0487 da         1 CLA      0.155200
    118 H93        87.0291   56.2688   36.5110 dc         1 CLA      0.069500
    119 H92        87.2712   56.8888   38.1385 dc         1 CLA      0.069500
    120 H91        87.1432   55.1130   37.9068 dc         1 CLA      0.069500
    121 H8         84.9081   57.2110   37.3445 dc         1 CLA      0.029300
    122 H72        83.2917   55.1783   37.3315 dc         1 CLA      0.044400
    123 H71        84.5317   54.2530   37.9352 dc         1 CLA      0.044400
    124 H62        85.5222   54.3795   35.6505 dc         1 CLA      0.015600
    125 H61        84.4992   55.6706   35.3078 dc         1 CLA      0.015600
    126 H52        83.7942   52.6988   35.4705 dc         1 CLA      0.033200
    127 H51        83.9796   53.6329   34.0978 dc         1 CLA      0.033200
    128 H43        80.8976   52.8649   36.3609 dc         1 CLA      0.037000
    129 H42        80.2755   53.0648   34.7187 dc         1 CLA      0.037000
    130 H41        81.5760   51.9939   34.9244 dc         1 CLA      0.037000
    131 H3A        80.0308   60.1458   35.6312 dc         1 CLA      0.041100
    132 H2A        78.9183   57.5086   35.0582 dc         1 CLA      0.083100
    133 H2         81.5347   55.7582   35.7192 da         1 CLA      0.180900
    134 H18        84.1050   61.1101   44.8234 dc         1 CLA     -0.003900
    135 H13        81.6933   56.4564   41.7125 dc         1 CLA      0.019700
    136 H12        80.7410   55.0946   32.9730 dc         1 CLA      0.120400
    137 H11        82.3760   55.7539   32.7719 dc         1 CLA      0.120400
    138 C1         68.1530   61.6702   49.8050 Z1         2 LUT      0.509236
    139 C2         66.8902   61.5198   50.7484 Z2         2 LUT     -0.434695
    140 C3         66.1327   62.7852   50.9342 Z3         2 LUT      0.437453
    141 O3         65.4398   62.8707   52.1624 S1         2 LUT     -0.547129
    142 C4         66.6794   64.0777   50.3859 Z4         2 LUT     -0.468603
    143 C5         67.2784   63.9611   49.0277 Z5         2 LUT      0.279246
    144 C6         67.9895   62.8347   48.7243 Z6         2 LUT     -0.305473
    145 C7         68.4864   62.4710   47.2928 Z7         2 LUT      0.069402
    146 C8         69.4086   63.1691   46.5711 Z8         2 LUT     -0.191631
    147 C9         69.8797   62.9656   45.2231 Z9         2 LUT      0.196698
    148 C10        71.0665   63.5844   44.7917 Y1         2 LUT     -0.208611
    149 C11        71.7408   63.4192   43.5077 Y2         2 LUT      0.030784
    150 C12        72.8430   64.1523   43.1731 Y3         2 LUT     -0.220316
    151 C13        73.7008   63.9817   42.0012 Y4         2 LUT      0.215937
    152 C14        74.9671   64.5320   42.0145 Y5         2 LUT     -0.185793
    153 C15        75.9455   64.4744   41.0404 Y6         2 LUT     -0.057835
    154 C16        68.4947   60.2894   49.2420 Y7         2 LUT     -0.405615
    155 C17        69.2456   62.1852   50.8088 Y7         2 LUT     -0.405615
    156 C18        66.5576   64.8217   47.9915 Y9         2 LUT     -0.369639
    157 C19        69.1291   61.9166   44.3103 W1         2 LUT     -0.333362
    158 C20        73.0878   63.3539   40.7220 W2         2 LUT     -0.323439
    159 C21        87.2353   65.7245   34.9598 Z1         2 LUT      0.406104
    160 C22        88.2134   65.6146   33.7526 Z2         2 LUT     -0.404965
    161 C23        88.5711   66.8637   33.0033 Z3         2 LUT      0.391255
    162 O23        89.5913   66.5837   32.0110 S1         2 LUT     -0.528210
    163 C24        87.2627   67.5106   32.5251 W6         2 LUT     -0.258361
    164 C25        86.0879   67.2858   33.1892 Z5         2 LUT      0.133546
    165 C26        85.8843   66.3761   34.4122 W8         2 LUT     -0.147008
    166 C27        85.0857   67.0645   35.5547 Z7         2 LUT      0.023843
    167 C28        83.8371   66.7770   36.0157 Z8         2 LUT     -0.216987
    168 C29        83.2908   67.2076   37.2568 Z9         2 LUT      0.206524
    169 C30        82.2702   66.4757   37.8627 Y1         2 LUT     -0.215556
    170 C31        81.4759   66.5962   39.0408 Y2         2 LUT      0.025142
    171 C32        80.2915   65.9061   39.2300 Y3         2 LUT     -0.212209
    172 C33        79.3121   65.8771   40.2374 Y4         2 LUT      0.240937
    173 C34        78.0809   65.1787   40.1156 Y5         2 LUT     -0.218862
    174 C35        77.0420   65.2159   41.0600 Y6         2 LUT     -0.023547
    175 C36        87.9806   66.5546   36.0495 Y7         2 LUT     -0.393485
    176 C37        86.9506   64.3063   35.4961 Y7         2 LUT     -0.393485
    177 C38        84.8812   68.1509   32.8131 Y9         2 LUT     -0.387526
    178 C39        83.9247   68.4164   37.9380 W1         2 LUT     -0.322618
    179 C40        79.6451   66.5869   41.5376 W2         2 LUT     -0.358472
    180 H403       80.7411   66.5635   41.6732 R7         2 LUT      0.097720
    181 H402       79.3876   67.6853   41.4205 R7         2 LUT      0.097720
    182 H401       79.0669   66.1478   42.3920 R7         2 LUT      0.097720
    183 H393       83.6518   69.2223   37.2681 R4         2 LUT      0.082505
    184 H392       83.3901   68.8535   38.8288 R4         2 LUT      0.082505
    185 H391       84.9528   68.2924   38.3318 R4         2 LUT      0.082505
    186 H383       84.9126   69.1036   33.4276 R1         2 LUT      0.104030
    187 H382       84.8403   68.3331   31.7066 R1         2 LUT      0.104030
    188 H381       83.9430   67.5937   33.0903 R1         2 LUT      0.104030
    189 H373       86.0530   64.3010   36.2055 T4         2 LUT      0.089537
    190 H372       86.6527   63.6256   34.6575 T4         2 LUT      0.089537
    191 H371       87.7427   63.8361   36.0454 T4         2 LUT      0.089537
    192 H363       87.3752   66.6625   36.9714 T4         2 LUT      0.089537
    193 H362       88.9991   66.2442   36.3085 T4         2 LUT      0.089537
    194 H361       88.1289   67.5715   35.7460 T4         2 LUT      0.089537
    195 H222       89.1287   65.0818   34.0453 U2         2 LUT      0.127376
    196 H221       87.9585   64.8255   33.0337 U2         2 LUT      0.127376
    197 H203       72.4430   64.1044   40.2833 R7         2 LUT      0.087068
    198 H202       73.6307   62.9155   39.9052 R7         2 LUT      0.087068
    199 H201       72.6650   62.4478   41.1135 R7         2 LUT      0.087068
    200 H193       68.9801   60.9358   44.7328 R4         2 LUT      0.089716
    201 H192       68.1138   62.2486   43.9909 R4         2 LUT      0.089716
    202 H191       69.6351   61.6686   43.4009 R4         2 LUT      0.089716
    203 H183       66.5104   64.2504   47.0976 R1         2 LUT      0.094572
    204 H182       65.6089   65.1267   48.3622 R1         2 LUT      0.094572
    205 H181       67.1521   65.7129   47.7801 R1         2 LUT      0.094572
    206 H173       68.8091   63.0605   51.3935 T4         2 LUT      0.093752
    207 H172       69.6389   61.4764   51.5331 T4         2 LUT      0.093752
    208 H171       70.0771   62.4581   50.1650 T4         2 LUT      0.093752
    209 H163       69.3909   60.4048   48.6905 T4         2 LUT      0.093752
    210 H162       68.5548   59.5842   50.0710 T4         2 LUT      0.093752
    211 H161       67.7171   59.8076   48.6102 T4         2 LUT      0.093752
    212 HO3        65.9605   63.2390   52.9717 Q1         2 LUT      0.300121
    213 H8         69.8515   64.0308   47.1746 U7         2 LUT      0.080784
    214 H7         67.9360   61.6463   46.6964 U6         2 LUT      0.042190
    215 H42        65.9021   64.8020   50.4250 U5         2 LUT      0.145166
    216 H41        67.4384   64.5314   50.9313 U5         2 LUT      0.145166
    217 H35        77.1067   65.9818   41.8501 T3         2 LUT      0.077919
    218 H34        77.8381   64.8461   39.0848 T2         2 LUT      0.073626
    219 H32        80.0049   65.1947   38.4103 T1         2 LUT      0.092510
    220 H31        81.6645   67.4178   39.7235 U9         2 LUT      0.070048
    221 H30        82.0236   65.5710   37.3808 U8         2 LUT      0.085442
    222 H3         65.2836   62.6605   50.2187 U3         2 LUT     -0.031596
    223 H28        83.2690   66.0609   35.3629 U7         2 LUT      0.084728
    224 H27        85.5720   67.7322   36.1771 U6         2 LUT      0.087291
    225 H26        85.2015   65.6141   34.0135 Q6         2 LUT      0.075325
    226 H24        87.4510   68.1995   31.6980 Q5         2 LUT      0.094482
    227 H23        88.9270   67.5755   33.8395 U3         2 LUT     -0.024869
    228 H22        66.1394   60.8523   50.3190 U2         2 LUT      0.127376
    229 H21        67.0778   61.1068   51.7178 U2         2 LUT      0.127376
    230 H15        75.9154   63.6903   40.2970 T3         2 LUT      0.093200
    231 H14        75.2024   65.2966   42.8452 T2         2 LUT      0.068865
    232 H12        73.1570   64.8928   43.9953 T1         2 LUT      0.095507
    233 H11        71.2969   62.8229   42.6745 U9         2 LUT      0.068930
    234 H10        71.5250   64.3181   45.4806 U8         2 LUT      0.083911
    235 H1         89.2447   66.2864   31.1653 Q1         2 LUT      0.297311
@<TRIPOS>BOND
    1     6     1 1
    2     7     2 1
    3     8     3 1
    4     9     4 1
    5    11     4 1
    6    12     6 1
    7    13     9 1
    8    16     9 1
    9    25     5 1
   10    25    16 1
   11    26    10 1
   12    26    17 1
   13    27    18 1
   14    28    14 1
   15    28    19 1
   16    29    12 1
   17    30    13 1
   18    31    24 1
   19    32     1 1
   20    32    25 1
   21    33    21 1
   22    33    26 1
   23    34    22 1
   24    34    27 1
   25    35    23 1
   26    35    28 1
   27    36    12 1
   28    36    24 1
   29    37    13 1
   30    37    15 1
   31    38    31 1
   32    39    20 1
   33    39    32 1
   34    40     2 1
   35    40    33 1
   36    41     3 1
   37    41    34 1
   38    42     4 1
   39    42    35 1
   40    43    38 1
   41    44     5 1
   42    44    17 1
   43    44    39 1
   44    45    10 1
   45    45    18 1
   46    45    40 1
   47    46    19 1
   48    46    41 1
   49    47    14 1
   50    47    16 1
   51    47    42 1
   52    48    38 1
   53    49    48 1
   54    50    49 1
   55    51    50 1
   56    52    51 1
   57    53    51 1
   58    54    53 1
   59    55    54 1
   60    56    55 1
   61    57    56 1
   62    58    56 1
   63    59    58 1
   64    60    59 1
   65    61    60 1
   66    62    61 1
   67    63    61 1
   68    64    27 1
   69    64    46 1
   70    65     5 1
   71    65    10 1
   72    65    64 1
   73    65    14 1
   74    66    23 1
   75    67    23 1
   76    68    23 1
   77    69    22 1
   78    70    22 1
   79    71    22 1
   80    72    21 1
   81    73    21 1
   82    74    21 1
   83    75    20 1
   84    76    20 1
   85    77    20 1
   86    78    15 1
   87    79    15 1
   88    80    15 1
   89    81     8 1
   90    82     8 1
   91    83     8 1
   92    84     7 1
   93    85     7 1
   94    86     6 1
   95    87     6 1
   96    88     3 1
   97    89     3 1
   98    90     1 1
   99    91     1 1
  100    92    63 1
  101    93    63 1
  102    94    63 1
  103    95    62 1
  104    96    62 1
  105    97    62 1
  106    98    60 1
  107    99    60 1
  108   100    59 1
  109   101    59 1
  110   102    58 1
  111   103    58 1
  112   104    57 1
  113   105    57 1
  114   106    57 1
  115   107    55 1
  116   108    55 1
  117   109    54 1
  118   110    54 1
  119   111    53 1
  120   112    53 1
  121   113    19 1
  122   114    18 1
  123   115    17 1
  124   116     9 1
  125   117     2 1
  126   118    52 1
  127   119    52 1
  128   120    52 1
  129   121    51 1
  130   122    50 1
  131   123    50 1
  132   124    49 1
  133   125    49 1
  134   126    48 1
  135   127    48 1
  136   128    43 1
  137   129    43 1
  138   130    43 1
  139   131    39 1
  140   132    32 1
  141   133    31 1
  142   134    61 1
  143   135    56 1
  144   136    24 1
  145   137    24 1
  146   139   138 1
  147   140   139 1
  148   141   140 1
  149   142   140 1
  150   143   142 1
  151   144   138 1
  152   144   143 1
  153   145   144 1
  154   146   145 1
  155   147   146 1
  156   148   147 1
  157   149   148 1
  158   150   149 1
  159   151   150 1
  160   152   151 1
  161   153   152 1
  162   154   138 1
  163   155   138 1
  164   156   143 1
  165   157   147 1
  166   158   151 1
  167   160   159 1
  168   161   160 1
  169   162   161 1
  170   163   161 1
  171   164   163 1
  172   165   159 1
  173   165   164 1
  174   166   165 1
  175   167   166 1
  176   168   167 1
  177   169   168 1
  178   170   169 1
  179   171   170 1
  180   172   171 1
  181   173   172 1
  182   174   153 1
  183   174   173 1
  184   175   159 1
  185   176   159 1
  186   177   164 1
  187   178   168 1
  188   179   172 1
  189   180   179 1
  190   181   179 1
  191   182   179 1
  192   183   178 1
  193   184   178 1
  194   185   178 1
  195   186   177 1
  196   187   177 1
  197   188   177 1
  198   189   176 1
  199   190   176 1
  200   191   176 1
  201   192   175 1
  202   193   175 1
  203   194   175 1
  204   195   160 1
  205   196   160 1
  206   197   158 1
  207   198   158 1
  208   199   158 1
  209   200   157 1
  210   201   157 1
  211   202   157 1
  212   203   156 1
  213   204   156 1
  214   205   156 1
  215   206   155 1
  216   207   155 1
  217   208   155 1
  218   209   154 1
  219   210   154 1
  220   211   154 1
  221   212   141 1
  222   213   146 1
  223   214   145 1
  224   215   142 1
  225   216   142 1
  226   217   174 1
  227   218   173 1
  228   219   171 1
  229   220   170 1
  230   221   169 1
  231   222   140 1
  232   223   167 1
  233   224   166 1
  234   225   165 1
  235   226   163 1
  236   227   161 1
  237   228   139 1
  238   229   139 1
  239   230   153 1
  240   231   152 1
  241   232   150 1
  242   233   149 1
  243   234   148 1
  244   235   162 1
  245   65    153 1
  246   65    174 1
@<TRIPOS>SUBSTRUCTURE
      1 CLA               1 ****               0 ****  **** 
      2 LUT             138 ****               0 ****  **** 
