@<TRIPOS>MOLECULE
Cpptraj generated mol2 file.
  235   246     2     0     0
SMALL
USER_CHARGES


@<TRIPOS>ATOM
      1 CAA        78.2365   58.4829   33.7429 a2         1 CLA     -0.055900
      2 CAB        78.7363   61.7858   42.7824 c8         1 CLA     -0.148500
      3 CAC        71.9648   57.5639   42.5920 a2         1 CLA     -0.012600
      4 CAD        73.9675   55.8553   34.7067 ck         1 CLA      0.398800
      5 NA         77.2977   58.7020   37.1215 ns         1 CLA     -0.225500
      6 CBA        79.4873   58.2832   32.7858 a2         1 CLA     -0.135000
      7 CBB        79.7934   61.3672   43.5644 c0         1 CLA     -0.395200
      8 CBC        72.0908   56.0499   42.4199 a3         1 CLA     -0.037700
      9 CBD        75.3778   56.3433   34.4289 a1         1 CLA     -0.053900
     10 NB         77.3508   60.1090   39.6749 nm         1 CLA     -0.295700
     11 OBD        73.2084   55.0976   34.0252 o2         1 CLA     -0.494600
     12 CGA        79.8528   56.9026   32.3200 c4         1 CLA      0.827000
     13 CGD        76.4526   55.2869   34.1147 c4         1 CLA      0.655300
     14 ND         74.5158   57.7093   37.6845 nm         1 CLA     -0.291600
     15 CED        77.4951   53.3747   34.8858 a3         1 CLA      0.005400
     16 CHA        75.8601   57.2381   35.6373 cs         1 CLA     -0.123800
     17 CHB        79.1687   59.9709   38.0437 aa         1 CLA     -0.291900
     18 CHC        76.0702   60.2635   41.7941 aa         1 CLA     -0.090400
     19 CHD        72.8258   57.4434   39.3953 aa         1 CLA     -0.052000
     20 CMA        80.8123   57.9952   36.2135 a3         1 CLA     -0.230700
     21 CMB        80.7062   61.7901   39.9557 a3         1 CLA     -0.180800
     22 CMC        73.8995   59.6707   43.8866 a3         1 CLA     -0.134000
     23 CMD        71.4898   55.7309   37.1289 a3         1 CLA     -0.141100
     24 C1         80.9655   54.9513   33.0860 a2         1 CLA      0.023000
     25 C1A        77.0160   57.9445   35.9331 ac         1 CLA     -0.015100
     26 C1B        78.5935   60.4267   39.2453 cr         1 CLA      0.054700
     27 C1C        74.8382   59.6343   41.4262 cn         1 CLA     -0.005600
     28 C1D        73.2623   57.2827   38.0576 ap         1 CLA     -0.047300
     29 O1A        79.5501   56.3444   31.2453 o2         1 CLA     -0.610800
     30 O1D        77.3613   55.5109   33.3271 o2         1 CLA     -0.558200
     31 C2         81.7407   54.5001   34.2758 c8         1 CLA     -0.325100
     32 C2A        78.3020   57.8943   35.0800 a1         1 CLA      0.098600
     33 C2B        79.2950   61.1678   40.2713 cb         1 CLA      0.088500
     34 C2C        73.7983   59.2878   42.4464 cb         1 CLA      0.053700
     35 C2D        72.7044   56.4891   37.0506 cb         1 CLA      0.058900
     36 O2A        80.6430   56.3581   33.3092 o1         1 CLA     -0.437200
     37 O2D        76.3081   54.1811   34.9542 o1         1 CLA     -0.357600
     38 C3         82.7445   53.6095   34.3228 c5         1 CLA      0.031200
     39 C3A        79.3763   58.6713   35.9043 a1         1 CLA      0.166800
     40 C3B        78.5044   61.1646   41.4266 cb         1 CLA      0.035000
     41 C3C        73.0322   58.3141   41.8426 cb         1 CLA     -0.089900
     42 C3D        73.6536   56.4796   36.0196 cb         1 CLA     -0.035900
     43 C4         82.5970   52.1817   34.7606 a3         1 CLA     -0.053300
     44 C4A        78.5599   59.1396   37.1390 ac         1 CLA      0.001800
     45 C4B        77.2302   60.4890   40.9964 cn         1 CLA     -0.020900
     46 C4C        73.4230   58.1775   40.4320 cr         1 CLA     -0.044400
     47 C4D        74.7407   57.2173   36.4818 c6         1 CLA     -0.046000
     48 C5         84.1870   54.0880   34.1248 a2         1 CLA     -0.070400
     49 C6         84.5456   55.4876   34.6498 a2         1 CLA      0.043900
     50 C7         84.4749   55.7584   36.1520 a2         1 CLA     -0.150000
     51 C8         84.7562   57.2618   36.5609 a1         1 CLA      0.064200
     52 C9         86.0648   57.8984   35.9540 a3         1 CLA     -0.259300
     53 C10        84.9286   57.4141   38.0990 a2         1 CLA     -0.071900
     54 C11        83.6310   57.3212   38.8584 a2         1 CLA      0.014500
     55 C12        83.8208   57.6197   40.3431 a2         1 CLA     -0.112100
     56 C13        82.6408   57.3056   41.2555 a1         1 CLA      0.089200
     57 C14        81.2133   57.8982   40.9636 a3         1 CLA     -0.239100
     58 C15        83.0008   57.1893   42.7421 a2         1 CLA     -0.102200
     59 C16        83.2453   58.4220   43.6410 a2         1 CLA      0.023900
     60 C17        83.1951   58.0924   45.1454 a2         1 CLA     -0.105700
     61 C18        83.3889   59.2989   45.9961 a1         1 CLA      0.206800
     62 C19        82.1448   60.2589   45.8935 a3         1 CLA     -0.280100
     63 C20        83.6096   59.0318   47.5093 a3         1 CLA     -0.280100
     64 NC         74.5960   58.9564   40.2573 nx         1 CLA     -0.309200
     65 MG         75.8910   58.9845   38.6531 mg         1 CLA      0.895000
     66 HMD3       71.4409   55.1921   38.0658 dc         1 CLA      0.064300
     67 HMD2       70.5839   56.2348   36.8445 dc         1 CLA      0.064300
     68 HMD1       71.6687   54.9938   36.3403 dc         1 CLA      0.064300
     69 HMC3       74.5297   60.5583   44.0045 dc         1 CLA      0.052100
     70 HMC2       72.9080   59.8775   44.3012 dc         1 CLA      0.052100
     71 HMC1       74.4329   58.8396   44.3803 dc         1 CLA      0.052100
     72 HMB3       80.5699   62.3779   39.0324 dc         1 CLA      0.063600
     73 HMB2       81.1311   62.4521   40.7110 dc         1 CLA      0.063600
     74 HMB1       81.4861   61.0195   39.7245 dc         1 CLA      0.063600
     75 HMA3       81.3047   58.4471   37.0620 dc         1 CLA      0.058300
     76 HMA2       80.6136   56.9802   36.5469 dc         1 CLA      0.058300
     77 HMA1       81.4329   57.9791   35.3275 dc         1 CLA      0.058300
     78 HED3       77.9030   53.1938   33.8972 dc         1 CLA      0.079300
     79 HED2       78.2603   53.7934   35.5915 dc         1 CLA      0.079300
     80 HED1       77.1167   52.4162   35.1387 dc         1 CLA      0.079300
     81 HBC3       71.9590   55.7871   41.3705 dc         1 CLA      0.016300
     82 HBC2       73.0882   55.8586   42.7322 dc         1 CLA      0.016300
     83 HBC1       71.3284   55.5678   43.1122 dc         1 CLA      0.016300
     84 HBB2       80.0425   61.8656   44.5973 da         1 CLA      0.183000
     85 HBB1       80.4946   60.6842   43.0837 da         1 CLA      0.183000
     86 HBA2       79.3909   58.8149   31.8812 dc         1 CLA      0.029400
     87 HBA1       80.3371   58.7057   33.3490 dc         1 CLA      0.029400
     88 HAC2       71.9850   57.9056   43.5943 dc         1 CLA      0.029300
     89 HAC1       71.0584   57.8519   42.1640 dc         1 CLA      0.029300
     90 HAA2       77.4758   57.9921   33.2160 dc         1 CLA      0.028700
     91 HAA1       77.9093   59.5087   33.8391 dc         1 CLA      0.028700
     92 H203       83.9184   60.0546   47.8522 dc         1 CLA      0.065600
     93 H202       82.6115   58.6959   47.9589 dc         1 CLA      0.065600
     94 H201       84.5099   58.3991   47.6328 dc         1 CLA      0.065600
     95 H193       82.2436   60.9940   46.6822 dc         1 CLA      0.065600
     96 H192       82.1187   60.7689   44.9058 dc         1 CLA      0.065600
     97 H191       81.1856   59.7701   46.0247 dc         1 CLA      0.065600
     98 H172       82.3252   57.6679   45.5326 dc         1 CLA      0.027600
     99 H171       84.0365   57.4420   45.2760 dc         1 CLA      0.027600
    100 H162       84.2419   58.8230   43.5283 dc         1 CLA      0.002900
    101 H161       82.5185   59.2151   43.4436 dc         1 CLA      0.002900
    102 H152       82.1227   56.6783   43.1808 dc         1 CLA      0.029100
    103 H151       83.8816   56.5656   42.8716 dc         1 CLA      0.029100
    104 H143       81.1196   58.8683   41.4255 dc         1 CLA      0.063600
    105 H142       80.9067   58.1169   39.8907 dc         1 CLA      0.063600
    106 H141       80.4678   57.1974   41.4300 dc         1 CLA      0.063600
    107 H122       84.7010   57.0328   40.6828 dc         1 CLA      0.032500
    108 H121       84.0534   58.6461   40.4992 dc         1 CLA      0.032500
    109 H112       82.9712   58.0041   38.4701 dc         1 CLA      0.006600
    110 H111       83.2615   56.2594   38.7925 dc         1 CLA      0.006600
    111 H102       85.5253   56.5389   38.4091 dc         1 CLA      0.024100
    112 H101       85.4555   58.3334   38.2959 dc         1 CLA      0.024100
    113 HHD        71.9062   56.9751   39.5692 da         1 CLA      0.174300
    114 HHC        76.2111   60.7122   42.8035 da         1 CLA      0.136800
    115 HHB        80.2352   60.2621   37.8445 da         1 CLA      0.138300
    116 HBD        75.3134   56.9795   33.5359 dc         1 CLA      0.107700
    117 HAB        78.0347   62.4765   43.1567 da         1 CLA      0.155200
    118 H93        86.2617   58.8494   36.2709 dc         1 CLA      0.069500
    119 H92        86.9684   57.3325   36.0762 dc         1 CLA      0.069500
    120 H91        85.8291   57.8857   34.9140 dc         1 CLA      0.069500
    121 H8         83.9728   57.8537   36.1270 dc         1 CLA      0.029300
    122 H72        83.4802   55.3879   36.2603 dc         1 CLA      0.044400
    123 H71        85.1244   55.0890   36.7027 dc         1 CLA      0.044400
    124 H62        85.5699   55.7504   34.2854 dc         1 CLA      0.015600
    125 H61        83.8937   56.1891   34.1733 dc         1 CLA      0.015600
    126 H52        84.7960   53.4779   34.7088 dc         1 CLA      0.033200
    127 H51        84.5112   54.0119   33.1074 dc         1 CLA      0.033200
    128 H43        82.7121   52.1188   35.8825 dc         1 CLA      0.037000
    129 H42        81.5554   51.9566   34.4558 dc         1 CLA      0.037000
    130 H41        83.3639   51.5433   34.2924 dc         1 CLA      0.037000
    131 H3A        79.7675   59.5763   35.4525 dc         1 CLA      0.041100
    132 H2A        78.6155   56.8460   34.9671 dc         1 CLA      0.083100
    133 H2         81.6594   55.0359   35.2393 da         1 CLA      0.180900
    134 H18        84.2856   59.8409   45.7042 dc         1 CLA     -0.003900
    135 H13        82.5289   56.2826   40.9805 dc         1 CLA      0.019700
    136 H12        80.0784   54.3226   32.8883 dc         1 CLA      0.120400
    137 H11        81.5550   54.9333   32.2039 dc         1 CLA      0.120400
    138 C1         67.8648   60.8668   50.0008 Z1         2 LUT      0.509236
    139 C2         66.4416   60.9077   50.5513 Z2         2 LUT     -0.434695
    140 C3         65.6960   62.2010   50.5165 Z3         2 LUT      0.437453
    141 O3         65.3518   62.6934   51.8370 S1         2 LUT     -0.547129
    142 C4         66.4450   63.3016   49.8239 Z4         2 LUT     -0.468603
    143 C5         67.0499   62.8326   48.5532 Z5         2 LUT      0.279246
    144 C6         67.7302   61.6940   48.5870 Z6         2 LUT     -0.305473
    145 C7         68.2421   61.1176   47.3535 Z7         2 LUT      0.069402
    146 C8         69.1314   61.8301   46.6078 Z8         2 LUT     -0.191631
    147 C9         69.8888   61.4993   45.3314 Z9         2 LUT      0.196698
    148 C10        70.8054   62.3991   44.9031 Y1         2 LUT     -0.208611
    149 C11        71.6296   62.2026   43.7174 Y2         2 LUT      0.030784
    150 C12        72.7186   63.0219   43.4678 Y3         2 LUT     -0.220316
    151 C13        73.6721   62.9809   42.4107 Y4         2 LUT      0.215937
    152 C14        74.7609   63.8555   42.5277 Y5         2 LUT     -0.185793
    153 C15        75.8459   64.0114   41.6185 Y6         2 LUT     -0.057835
    154 C16        68.3451   59.3962   49.8835 Y7         2 LUT     -0.405615
    155 C17        68.7664   61.5799   51.0680 Y7         2 LUT     -0.405615
    156 C18        66.7095   63.7169   47.4180 Y9         2 LUT     -0.369639
    157 C19        69.5550   60.1917   44.6893 W1         2 LUT     -0.333362
    158 C20        73.2302   62.4170   41.0459 W2         2 LUT     -0.323439
    159 C21        86.7492   65.8263   34.5735 Z1         2 LUT      0.406104
    160 C22        87.6342   65.3805   33.3456 Z2         2 LUT     -0.404965
    161 C23        87.5185   66.2972   32.1953 Z3         2 LUT      0.391255
    162 O23        88.2647   65.8159   31.0976 S1         2 LUT     -0.528210
    163 C24        86.1823   66.9170   31.9107 W6         2 LUT     -0.258361
    164 C25        85.1466   66.9755   32.7609 Z5         2 LUT      0.133546
    165 C26        85.3059   66.1977   34.1036 W8         2 LUT     -0.147008
    166 C27        84.5154   66.7894   35.2874 Z7         2 LUT      0.023843
    167 C28        83.4010   66.3065   35.9576 Z8         2 LUT     -0.216987
    168 C29        82.8910   66.8023   37.2813 Z9         2 LUT      0.206524
    169 C30        81.8029   66.1098   37.7648 Y1         2 LUT     -0.215556
    170 C31        81.0613   66.2461   38.9715 Y2         2 LUT      0.025142
    171 C32        79.8698   65.6322   39.2935 Y3         2 LUT     -0.212209
    172 C33        78.9372   65.7205   40.4665 Y4         2 LUT      0.240937
    173 C34        77.8438   64.9354   40.6814 Y5         2 LUT     -0.218862
    174 C35        76.8227   64.9656   41.6372 Y6         2 LUT     -0.023547
    175 C36        87.4600   67.0465   35.0932 Y7         2 LUT     -0.393485
    176 C37        86.8367   64.6535   35.6622 Y7         2 LUT     -0.393485
    177 C38        83.7779   67.6011   32.4491 Y9         2 LUT     -0.387526
    178 C39        83.3950   68.0271   37.8885 W1         2 LUT     -0.322618
    179 C40        79.5232   66.4768   41.6595 W2         2 LUT     -0.358472
    180 H403       78.9226   66.5733   42.5488 R7         2 LUT      0.097720
    181 H402       80.4384   66.0073   41.9485 R7         2 LUT      0.097720
    182 H401       79.7761   67.4863   41.4259 R7         2 LUT      0.097720
    183 H393       82.6222   68.6310   38.2927 R4         2 LUT      0.082505
    184 H392       84.0888   67.7934   38.6910 R4         2 LUT      0.082505
    185 H391       83.8822   68.7835   37.2391 R4         2 LUT      0.082505
    186 H383       82.9381   67.0358   32.8839 R1         2 LUT      0.104030
    187 H382       83.6992   68.5985   32.8216 R1         2 LUT      0.104030
    188 H381       83.6679   67.5887   31.3721 R1         2 LUT      0.104030
    189 H373       87.8025   64.1960   35.8118 T4         2 LUT      0.089537
    190 H372       86.4736   64.9625   36.5892 T4         2 LUT      0.089537
    191 H371       86.2225   63.8392   35.2330 T4         2 LUT      0.089537
    192 H363       88.5114   66.9974   35.3114 T4         2 LUT      0.089537
    193 H362       87.3501   67.8758   34.4249 T4         2 LUT      0.089537
    194 H361       86.9920   67.2871   36.0751 T4         2 LUT      0.089537
    195 H222       88.7136   65.1780   33.5368 U2         2 LUT      0.127376
    196 H221       87.1494   64.4674   32.9445 U2         2 LUT      0.127376
    197 H203       72.4338   61.7423   40.9765 R7         2 LUT      0.087068
    198 H202       73.0561   63.1843   40.2702 R7         2 LUT      0.087068
    199 H201       74.0316   61.8957   40.6782 R7         2 LUT      0.087068
    200 H193       70.2225   59.4185   45.0956 R4         2 LUT      0.089716
    201 H192       68.5677   59.7515   44.7023 R4         2 LUT      0.089716
    202 H191       69.8603   60.1009   43.5953 R4         2 LUT      0.089716
    203 H183       67.3161   64.5888   47.3310 R1         2 LUT      0.094572
    204 H182       66.6735   63.0705   46.5565 R1         2 LUT      0.094572
    205 H181       65.7317   64.1371   47.5102 R1         2 LUT      0.094572
    206 H173       69.1169   62.5357   50.7487 T4         2 LUT      0.093752
    207 H172       68.2588   61.6670   52.0438 T4         2 LUT      0.093752
    208 H171       69.6921   61.0489   51.1682 T4         2 LUT      0.093752
    209 H163       69.3862   59.2915   49.4927 T4         2 LUT      0.093752
    210 H162       68.2545   58.9697   50.8620 T4         2 LUT      0.093752
    211 H161       67.6634   59.0222   49.1419 T4         2 LUT      0.093752
    212 HO3        64.5515   62.2047   52.1234 Q1         2 LUT      0.300121
    213 H8         69.4630   62.8338   46.9150 U7         2 LUT      0.080784
    214 H7         68.1213   60.0332   47.1447 U6         2 LUT      0.042190
    215 H42        65.6027   64.0134   49.7467 U5         2 LUT      0.145166
    216 H41        67.0892   63.9143   50.4670 U5         2 LUT      0.145166
    217 H35        76.9561   65.7999   42.3315 T3         2 LUT      0.077919
    218 H34        77.7632   64.1973   39.9769 T2         2 LUT      0.073626
    219 H32        79.4795   64.9146   38.6201 T1         2 LUT      0.092510
    220 H31        81.4401   67.0723   39.5283 U9         2 LUT      0.070048
    221 H30        81.5122   65.2670   37.1877 U8         2 LUT      0.085442
    222 H3         64.7327   61.9291   49.9763 U3         2 LUT     -0.031596
    223 H28        83.0608   65.3272   35.5807 U7         2 LUT      0.084728
    224 H27        84.9584   67.6672   35.8109 U6         2 LUT      0.087291
    225 H26        84.8052   65.2413   33.9316 Q6         2 LUT      0.075325
    226 H24        86.1547   67.3344   30.9191 Q5         2 LUT      0.094482
    227 H23        88.1030   67.1062   32.5253 U3         2 LUT     -0.024869
    228 H22        65.7739   60.1598   50.0405 U2         2 LUT      0.127376
    229 H21        66.4463   60.4666   51.5551 U2         2 LUT      0.127376
    230 H15        75.8954   63.2752   40.9003 T3         2 LUT      0.093200
    231 H14        74.8925   64.6010   43.2521 T2         2 LUT      0.068865
    232 H12        72.9686   63.8341   44.2137 T1         2 LUT      0.095507
    233 H11        71.4309   61.4469   43.0348 U9         2 LUT      0.068930
    234 H10        70.8203   63.3624   45.4966 U8         2 LUT      0.083911
    235 H1         87.7087   65.2788   30.4976 Q1         2 LUT      0.297311
@<TRIPOS>BOND
    1     6     1 1
    2     7     2 1
    3     8     3 1
    4     9     4 1
    5    11     4 1
    6    12     6 1
    7    13     9 1
    8    16     9 1
    9    25     5 1
   10    25    16 1
   11    26    10 1
   12    26    17 1
   13    27    18 1
   14    28    14 1
   15    28    19 1
   16    29    12 1
   17    30    13 1
   18    31    24 1
   19    32     1 1
   20    32    25 1
   21    33    21 1
   22    33    26 1
   23    34    22 1
   24    34    27 1
   25    35    23 1
   26    35    28 1
   27    36    12 1
   28    36    24 1
   29    37    13 1
   30    37    15 1
   31    38    31 1
   32    39    20 1
   33    39    32 1
   34    40     2 1
   35    40    33 1
   36    41     3 1
   37    41    34 1
   38    42     4 1
   39    42    35 1
   40    43    38 1
   41    44     5 1
   42    44    17 1
   43    44    39 1
   44    45    10 1
   45    45    18 1
   46    45    40 1
   47    46    19 1
   48    46    41 1
   49    47    14 1
   50    47    16 1
   51    47    42 1
   52    48    38 1
   53    49    48 1
   54    50    49 1
   55    51    50 1
   56    52    51 1
   57    53    51 1
   58    54    53 1
   59    55    54 1
   60    56    55 1
   61    57    56 1
   62    58    56 1
   63    59    58 1
   64    60    59 1
   65    61    60 1
   66    62    61 1
   67    63    61 1
   68    64    27 1
   69    64    46 1
   70    65     5 1
   71    65    10 1
   72    65    64 1
   73    65    14 1
   74    66    23 1
   75    67    23 1
   76    68    23 1
   77    69    22 1
   78    70    22 1
   79    71    22 1
   80    72    21 1
   81    73    21 1
   82    74    21 1
   83    75    20 1
   84    76    20 1
   85    77    20 1
   86    78    15 1
   87    79    15 1
   88    80    15 1
   89    81     8 1
   90    82     8 1
   91    83     8 1
   92    84     7 1
   93    85     7 1
   94    86     6 1
   95    87     6 1
   96    88     3 1
   97    89     3 1
   98    90     1 1
   99    91     1 1
  100    92    63 1
  101    93    63 1
  102    94    63 1
  103    95    62 1
  104    96    62 1
  105    97    62 1
  106    98    60 1
  107    99    60 1
  108   100    59 1
  109   101    59 1
  110   102    58 1
  111   103    58 1
  112   104    57 1
  113   105    57 1
  114   106    57 1
  115   107    55 1
  116   108    55 1
  117   109    54 1
  118   110    54 1
  119   111    53 1
  120   112    53 1
  121   113    19 1
  122   114    18 1
  123   115    17 1
  124   116     9 1
  125   117     2 1
  126   118    52 1
  127   119    52 1
  128   120    52 1
  129   121    51 1
  130   122    50 1
  131   123    50 1
  132   124    49 1
  133   125    49 1
  134   126    48 1
  135   127    48 1
  136   128    43 1
  137   129    43 1
  138   130    43 1
  139   131    39 1
  140   132    32 1
  141   133    31 1
  142   134    61 1
  143   135    56 1
  144   136    24 1
  145   137    24 1
  146   139   138 1
  147   140   139 1
  148   141   140 1
  149   142   140 1
  150   143   142 1
  151   144   138 1
  152   144   143 1
  153   145   144 1
  154   146   145 1
  155   147   146 1
  156   148   147 1
  157   149   148 1
  158   150   149 1
  159   151   150 1
  160   152   151 1
  161   153   152 1
  162   154   138 1
  163   155   138 1
  164   156   143 1
  165   157   147 1
  166   158   151 1
  167   160   159 1
  168   161   160 1
  169   162   161 1
  170   163   161 1
  171   164   163 1
  172   165   159 1
  173   165   164 1
  174   166   165 1
  175   167   166 1
  176   168   167 1
  177   169   168 1
  178   170   169 1
  179   171   170 1
  180   172   171 1
  181   173   172 1
  182   174   153 1
  183   174   173 1
  184   175   159 1
  185   176   159 1
  186   177   164 1
  187   178   168 1
  188   179   172 1
  189   180   179 1
  190   181   179 1
  191   182   179 1
  192   183   178 1
  193   184   178 1
  194   185   178 1
  195   186   177 1
  196   187   177 1
  197   188   177 1
  198   189   176 1
  199   190   176 1
  200   191   176 1
  201   192   175 1
  202   193   175 1
  203   194   175 1
  204   195   160 1
  205   196   160 1
  206   197   158 1
  207   198   158 1
  208   199   158 1
  209   200   157 1
  210   201   157 1
  211   202   157 1
  212   203   156 1
  213   204   156 1
  214   205   156 1
  215   206   155 1
  216   207   155 1
  217   208   155 1
  218   209   154 1
  219   210   154 1
  220   211   154 1
  221   212   141 1
  222   213   146 1
  223   214   145 1
  224   215   142 1
  225   216   142 1
  226   217   174 1
  227   218   173 1
  228   219   171 1
  229   220   170 1
  230   221   169 1
  231   222   140 1
  232   223   167 1
  233   224   166 1
  234   225   165 1
  235   226   163 1
  236   227   161 1
  237   228   139 1
  238   229   139 1
  239   230   153 1
  240   231   152 1
  241   232   150 1
  242   233   149 1
  243   234   148 1
  244   235   162 1
  245   65    153 1
  246   65    174 1
@<TRIPOS>SUBSTRUCTURE
      1 CLA               1 ****               0 ****  **** 
      2 LUT             138 ****               0 ****  **** 
