@<TRIPOS>MOLECULE
Cpptraj generated mol2 file.
  235   246     2     0     0
SMALL
USER_CHARGES


@<TRIPOS>ATOM
      1 CAA        78.3054   57.1764   34.6899 a2         1 CLA     -0.055900
      2 CAB        78.0045   61.4105   43.4815 c8         1 CLA     -0.148500
      3 CAC        71.5170   56.5357   43.2639 a2         1 CLA     -0.012600
      4 CAD        74.2077   54.4267   35.9238 ck         1 CLA      0.398800
      5 NA         77.2548   57.5664   38.0624 ns         1 CLA     -0.225500
      6 CBA        79.6071   57.0057   33.7562 a2         1 CLA     -0.135000
      7 CBB        79.1502   61.3328   44.1297 c0         1 CLA     -0.395200
      8 CBC        71.6588   55.0952   43.6064 a3         1 CLA     -0.037700
      9 CBD        75.6137   55.0342   35.6344 a1         1 CLA     -0.053900
     10 NB         77.0626   59.0892   40.6572 nm         1 CLA     -0.295700
     11 OBD        73.5834   53.6928   35.0893 o2         1 CLA     -0.494600
     12 CGA        80.2112   55.6739   33.5435 c4         1 CLA      0.827000
     13 CGD        76.5599   53.8086   35.4304 c4         1 CLA      0.655300
     14 ND         74.5356   56.5007   38.7397 nm         1 CLA     -0.291600
     15 CED        77.4525   51.7341   36.2989 a3         1 CLA      0.005400
     16 CHA        76.0380   55.9819   36.7431 cs         1 CLA     -0.123800
     17 CHB        78.9710   59.1012   39.0795 aa         1 CLA     -0.291900
     18 CHC        75.6822   59.3707   42.7194 aa         1 CLA     -0.090400
     19 CHD        72.7943   56.1804   40.4873 aa         1 CLA     -0.052000
     20 CMA        80.6499   57.1462   37.3715 a3         1 CLA     -0.230700
     21 CMB        80.1186   61.0787   41.0180 a3         1 CLA     -0.180800
     22 CMC        73.2869   58.6788   44.7957 a3         1 CLA     -0.134000
     23 CMD        71.5455   54.3766   38.2677 a3         1 CLA     -0.141100
     24 C1         81.0032   53.8450   34.7398 a2         1 CLA      0.023000
     25 C1A        77.0622   56.8574   36.8910 ac         1 CLA     -0.015100
     26 C1B        78.2810   59.5001   40.2796 cr         1 CLA      0.054700
     27 C1C        74.6453   58.4876   42.5070 cn         1 CLA     -0.005600
     28 C1D        73.3068   55.9853   39.1598 ap         1 CLA     -0.047300
     29 O1A        80.1606   55.0251   32.4693 o2         1 CLA     -0.610800
     30 O1D        77.2447   53.6247   34.4193 o2         1 CLA     -0.558200
     31 C2         81.0526   53.3040   36.1435 c8         1 CLA     -0.325100
     32 C2A        78.4101   56.7935   36.1678 a1         1 CLA      0.098600
     33 C2B        78.7938   60.4268   41.2465 cb         1 CLA      0.088500
     34 C2C        73.4922   58.0836   43.4146 cb         1 CLA      0.053700
     35 C2D        72.7703   55.1858   38.1659 cb         1 CLA      0.058900
     36 O2A        80.5005   55.1655   34.8250 o1         1 CLA     -0.437200
     37 O2D        76.6454   52.9790   36.5002 o1         1 CLA     -0.357600
     38 C3         82.0783   52.4973   36.6434 c5         1 CLA      0.031200
     39 C3A        79.3438   57.7796   36.9800 a1         1 CLA      0.166800
     40 C3B        77.8787   60.5937   42.2523 cb         1 CLA      0.035000
     41 C3C        72.7270   57.1565   42.6810 cb         1 CLA     -0.089900
     42 C3D        73.8070   55.0776   37.2121 cb         1 CLA     -0.035900
     43 C4         81.8880   51.0157   36.7073 a3         1 CLA     -0.053300
     44 C4A        78.5298   58.1378   38.1583 ac         1 CLA      0.001800
     45 C4B        76.7940   59.6756   41.9150 cn         1 CLA     -0.020900
     46 C4C        73.3541   56.9950   41.4613 cr         1 CLA     -0.044400
     47 C4D        74.8613   55.9275   37.5815 c6         1 CLA     -0.046000
     48 C5         83.3021   53.0427   37.3803 a2         1 CLA     -0.070400
     49 C6         83.0660   53.2247   38.9583 a2         1 CLA      0.043900
     50 C7         84.1160   54.0078   39.6291 a2         1 CLA     -0.150000
     51 C8         84.3659   55.5223   39.1201 a1         1 CLA      0.064200
     52 C9         85.4383   55.6538   38.0317 a3         1 CLA     -0.259300
     53 C10        84.4851   56.5383   40.2341 a2         1 CLA     -0.071900
     54 C11        83.2158   56.9698   40.9467 a2         1 CLA      0.014500
     55 C12        83.6188   57.9229   42.0964 a2         1 CLA     -0.112100
     56 C13        84.4021   57.2543   43.2572 a1         1 CLA      0.089200
     57 C14        83.8868   55.9457   43.9228 a3         1 CLA     -0.239100
     58 C15        84.6171   58.3872   44.3245 a2         1 CLA     -0.102200
     59 C16        83.4532   58.8784   45.0803 a2         1 CLA      0.023900
     60 C17        83.9103   59.8362   46.2446 a2         1 CLA     -0.105700
     61 C18        82.9472   61.0005   46.4778 a1         1 CLA      0.206800
     62 C19        81.4430   60.6393   46.5754 a3         1 CLA     -0.280100
     63 C20        83.2978   61.6838   47.8414 a3         1 CLA     -0.280100
     64 NC         74.5114   57.7602   41.3417 nx         1 CLA     -0.309200
     65 MG         75.7942   57.7814   39.7475 mg         1 CLA      0.895000
     66 HMD3       70.5759   54.9554   38.1400 dc         1 CLA      0.064300
     67 HMD2       71.6113   53.6651   37.4659 dc         1 CLA      0.064300
     68 HMD1       71.6819   53.8665   39.2314 dc         1 CLA      0.064300
     69 HMC3       73.3892   57.8115   45.4631 dc         1 CLA      0.052100
     70 HMC2       74.0144   59.3941   45.1501 dc         1 CLA      0.052100
     71 HMC1       72.2884   59.0833   44.8239 dc         1 CLA      0.052100
     72 HMB3       80.8808   60.3184   41.1487 dc         1 CLA      0.063600
     73 HMB2       80.2418   61.4064   39.9643 dc         1 CLA      0.063600
     74 HMB1       80.1563   61.9274   41.7106 dc         1 CLA      0.063600
     75 HMA3       81.2159   57.8723   37.9199 dc         1 CLA      0.058300
     76 HMA2       80.4999   56.3466   38.0606 dc         1 CLA      0.058300
     77 HMA1       81.2979   56.7297   36.6129 dc         1 CLA      0.058300
     78 HED3       77.0978   51.1659   35.4422 dc         1 CLA      0.079300
     79 HED2       78.4702   52.0039   36.1774 dc         1 CLA      0.079300
     80 HED1       77.3492   51.1264   37.3019 dc         1 CLA      0.079300
     81 HBC3       72.6491   55.0020   44.0426 dc         1 CLA      0.016300
     82 HBC2       70.9628   54.7437   44.3665 dc         1 CLA      0.016300
     83 HBC1       71.5272   54.5285   42.7072 dc         1 CLA      0.016300
     84 HBB2       79.3185   61.9611   44.9903 da         1 CLA      0.183000
     85 HBB1       80.0040   60.7006   43.7559 da         1 CLA      0.183000
     86 HBA2       79.3750   57.5607   32.7755 dc         1 CLA      0.029400
     87 HBA1       80.3981   57.5512   34.2736 dc         1 CLA      0.029400
     88 HAC2       71.2722   57.0704   44.1865 dc         1 CLA      0.029300
     89 HAC1       70.6356   56.7738   42.6704 dc         1 CLA      0.029300
     90 HAA2       77.4998   56.5877   34.2275 dc         1 CLA      0.028700
     91 HAA1       77.9769   58.2241   34.6699 dc         1 CLA      0.028700
     92 H203       83.3248   61.0314   48.7221 dc         1 CLA      0.065600
     93 H202       84.2684   62.0865   47.7015 dc         1 CLA      0.065600
     94 H201       82.5198   62.5124   48.0463 dc         1 CLA      0.065600
     95 H193       81.2584   60.1879   47.5277 dc         1 CLA      0.065600
     96 H192       80.9577   61.6264   46.5302 dc         1 CLA      0.065600
     97 H191       81.1322   59.9768   45.7849 dc         1 CLA      0.065600
     98 H172       83.9907   59.0894   47.0170 dc         1 CLA      0.027600
     99 H171       84.8939   60.2971   46.0957 dc         1 CLA      0.027600
    100 H162       82.7151   59.4683   44.4142 dc         1 CLA      0.002900
    101 H161       82.9408   58.0338   45.4393 dc         1 CLA      0.002900
    102 H152       85.4821   58.0132   44.9691 dc         1 CLA      0.029100
    103 H151       84.9766   59.1989   43.7348 dc         1 CLA      0.029100
    104 H143       84.5865   55.8290   44.7460 dc         1 CLA      0.063600
    105 H142       82.9229   55.9012   44.4756 dc         1 CLA      0.063600
    106 H141       84.0437   55.0761   43.2841 dc         1 CLA      0.063600
    107 H122       84.2779   58.7087   41.6416 dc         1 CLA      0.032500
    108 H121       82.7792   58.5112   42.4867 dc         1 CLA      0.032500
    109 H112       82.6841   57.4857   40.1619 dc         1 CLA      0.006600
    110 H111       82.6194   56.0909   41.1957 dc         1 CLA      0.006600
    111 H102       85.1443   56.1526   40.9640 dc         1 CLA      0.024100
    112 H101       84.8569   57.4568   39.7950 dc         1 CLA      0.024100
    113 HHD        71.8244   55.7714   40.7037 da         1 CLA      0.174300
    114 HHC        75.6194   59.7987   43.7320 da         1 CLA      0.136800
    115 HHB        79.9197   59.4696   38.7939 da         1 CLA      0.138300
    116 HBD        75.5188   55.4985   34.6586 dc         1 CLA      0.107700
    117 HAB        77.1603   61.9755   43.9130 da         1 CLA      0.155200
    118 H93        85.7105   54.7270   37.5610 dc         1 CLA      0.069500
    119 H92        85.0342   56.4113   37.3450 dc         1 CLA      0.069500
    120 H91        86.3689   56.0381   38.4297 dc         1 CLA      0.069500
    121 H8         83.3689   55.6834   38.5931 dc         1 CLA      0.029300
    122 H72        83.7295   53.9198   40.6311 dc         1 CLA      0.044400
    123 H71        85.0106   53.4370   39.4881 dc         1 CLA      0.044400
    124 H62        82.1938   53.8180   39.0264 dc         1 CLA      0.015600
    125 H61        82.9192   52.2195   39.4226 dc         1 CLA      0.015600
    126 H52        84.1732   52.4689   37.0103 dc         1 CLA      0.033200
    127 H51        83.4722   54.0503   37.0261 dc         1 CLA      0.033200
    128 H43        82.6061   50.4729   37.3673 dc         1 CLA      0.037000
    129 H42        80.8904   50.6878   36.9318 dc         1 CLA      0.037000
    130 H41        82.1745   50.6881   35.7157 dc         1 CLA      0.037000
    131 H3A        79.5440   58.6352   36.3882 dc         1 CLA      0.041100
    132 H2A        78.8114   55.7827   36.3846 dc         1 CLA      0.083100
    133 H2         80.2737   53.6242   36.8597 da         1 CLA      0.180900
    134 H18        83.0378   61.7810   45.6709 dc         1 CLA     -0.003900
    135 H13        85.4437   57.1152   43.0181 dc         1 CLA      0.019700
    136 H12        80.3640   53.1329   34.0920 dc         1 CLA      0.120400
    137 H11        82.0330   53.8995   34.3665 dc         1 CLA      0.120400
    138 C1         67.9431   60.4179   49.8379 Z1         2 LUT      0.509236
    139 C2         66.5599   60.2378   50.5598 Z2         2 LUT     -0.434695
    140 C3         65.7800   61.3886   51.0514 Z3         2 LUT      0.437453
    141 O3         65.7500   61.6756   52.4546 S1         2 LUT     -0.547129
    142 C4         66.0480   62.5987   50.1702 Z4         2 LUT     -0.468603
    143 C5         66.6879   62.3866   48.8755 Z5         2 LUT      0.279246
    144 C6         67.5639   61.3742   48.7122 Z6         2 LUT     -0.305473
    145 C7         67.9703   60.9960   47.3409 Z7         2 LUT      0.069402
    146 C8         69.1324   61.3152   46.6940 Z8         2 LUT     -0.191631
    147 C9         69.6490   60.8150   45.4214 Z9         2 LUT      0.196698
    148 C10        70.7920   61.4091   44.9788 Y1         2 LUT     -0.208611
    149 C11        71.5283   61.3076   43.7205 Y2         2 LUT      0.030784
    150 C12        72.5037   62.1631   43.3210 Y3         2 LUT     -0.220316
    151 C13        73.3227   62.2388   42.1255 Y4         2 LUT      0.215937
    152 C14        74.3905   63.0804   42.1508 Y5         2 LUT     -0.185793
    153 C15        75.4197   63.1519   41.1632 Y6         2 LUT     -0.057835
    154 C16        68.3707   58.9699   49.5033 Y7         2 LUT     -0.405615
    155 C17        68.9591   61.0362   50.7598 Y7         2 LUT     -0.405615
    156 C18        66.1828   63.3351   47.7671 Y9         2 LUT     -0.369639
    157 C19        68.8730   59.7323   44.7514 W1         2 LUT     -0.333362
    158 C20        72.7703   61.3802   41.0238 W2         2 LUT     -0.323439
    159 C21        86.8193   64.5537   35.2013 Z1         2 LUT      0.406104
    160 C22        87.6875   63.9292   34.0682 Z2         2 LUT     -0.404965
    161 C23        87.8823   64.7644   32.8227 Z3         2 LUT      0.391255
    162 O23        88.3369   63.9570   31.7421 S1         2 LUT     -0.528210
    163 C24        86.5800   65.4785   32.4412 W6         2 LUT     -0.258361
    164 C25        85.5507   65.7503   33.2536 Z5         2 LUT      0.133546
    165 C26        85.3876   64.8418   34.5376 W8         2 LUT     -0.147008
    166 C27        84.4953   65.4473   35.5695 Z7         2 LUT      0.023843
    167 C28        83.4374   64.8775   36.2601 Z8         2 LUT     -0.216987
    168 C29        82.6190   65.3291   37.3746 Z9         2 LUT      0.206524
    169 C30        81.6509   64.4900   37.8571 Y1         2 LUT     -0.215556
    170 C31        80.9152   64.8258   39.0648 Y2         2 LUT      0.025142
    171 C32        79.7737   64.1780   39.4781 Y3         2 LUT     -0.212209
    172 C33        78.8762   64.5670   40.5379 Y4         2 LUT      0.240937
    173 C34        77.7168   63.8699   40.5534 Y5         2 LUT     -0.218862
    174 C35        76.5975   63.8803   41.4075 Y6         2 LUT     -0.023547
    175 C36        87.5266   65.8354   35.7393 Y7         2 LUT     -0.393485
    176 C37        86.6889   63.3547   36.3360 Y7         2 LUT     -0.393485
    177 C38        84.4104   66.6113   32.8284 Y9         2 LUT     -0.387526
    178 C39        83.0834   66.6923   37.7924 W1         2 LUT     -0.322618
    179 C40        79.3618   65.5037   41.5866 W2         2 LUT     -0.358472
    180 H403       79.1677   66.5331   41.3148 R7         2 LUT      0.097720
    181 H402       78.8883   65.3407   42.5860 R7         2 LUT      0.097720
    182 H401       80.3543   65.3366   41.8179 R7         2 LUT      0.097720
    183 H393       82.3826   67.2120   38.4582 R4         2 LUT      0.082505
    184 H392       84.0127   66.5906   38.3270 R4         2 LUT      0.082505
    185 H391       83.1543   67.4216   36.9443 R4         2 LUT      0.082505
    186 H383       83.8359   67.0000   33.7021 R1         2 LUT      0.104030
    187 H382       84.7836   67.3646   32.1135 R1         2 LUT      0.104030
    188 H381       83.6734   65.9348   32.3340 R1         2 LUT      0.104030
    189 H373       87.6255   63.1517   36.8346 T4         2 LUT      0.089537
    190 H372       86.0094   63.7423   37.1163 T4         2 LUT      0.089537
    191 H371       86.3993   62.3485   35.9982 T4         2 LUT      0.089537
    192 H363       86.9943   66.4326   36.5575 T4         2 LUT      0.089537
    193 H362       88.5266   65.6106   36.1704 T4         2 LUT      0.089537
    194 H361       87.7548   66.5316   34.8687 T4         2 LUT      0.089537
    195 H222       88.6336   63.6108   34.6048 U2         2 LUT      0.127376
    196 H221       87.1399   63.0402   33.7496 U2         2 LUT      0.127376
    197 H203       73.1670   61.6338   40.0054 R7         2 LUT      0.087068
    198 H202       73.0508   60.3888   41.2661 R7         2 LUT      0.087068
    199 H201       71.6938   61.4094   41.0702 R7         2 LUT      0.087068
    200 H193       68.0895   60.0312   44.0440 R4         2 LUT      0.089716
    201 H192       69.5493   59.0649   44.2184 R4         2 LUT      0.089716
    202 H191       68.3533   59.0050   45.3761 R4         2 LUT      0.089716
    203 H183       65.2051   63.7459   47.9031 R1         2 LUT      0.094572
    204 H182       66.9042   64.1560   47.7094 R1         2 LUT      0.094572
    205 H181       66.1918   62.7710   46.9033 R1         2 LUT      0.094572
    206 H173       69.9245   61.1149   50.1987 T4         2 LUT      0.093752
    207 H172       68.8265   62.0827   51.0509 T4         2 LUT      0.093752
    208 H171       69.0786   60.4553   51.6803 T4         2 LUT      0.093752
    209 H163       68.5694   58.4465   50.4302 T4         2 LUT      0.093752
    210 H162       67.5891   58.2931   49.0933 T4         2 LUT      0.093752
    211 H161       69.2405   58.8354   48.8825 T4         2 LUT      0.093752
    212 HO3        66.5801   61.7774   52.9068 Q1         2 LUT      0.300121
    213 H8         69.7592   61.9739   47.2745 U7         2 LUT      0.080784
    214 H7         67.2618   60.3768   46.8134 U6         2 LUT      0.042190
    215 H42        65.2507   63.2657   50.1618 U5         2 LUT      0.145166
    216 H41        66.6776   63.2640   50.6881 U5         2 LUT      0.145166
    217 H35        76.7024   64.5020   42.2734 T3         2 LUT      0.077919
    218 H34        77.5317   63.1093   39.8041 T2         2 LUT      0.073626
    219 H32        79.4089   63.3606   38.8517 T1         2 LUT      0.092510
    220 H31        81.2618   65.7346   39.5969 U9         2 LUT      0.070048
    221 H30        81.3764   63.5422   37.3147 U8         2 LUT      0.085442
    222 H3         64.7824   61.1520   50.7820 U3         2 LUT     -0.031596
    223 H28        83.2807   63.8047   36.1035 U7         2 LUT      0.084728
    224 H27        84.8509   66.4571   35.7754 U6         2 LUT      0.087291
    225 H26        84.9401   63.9377   34.1553 Q6         2 LUT      0.075325
    226 H24        86.7386   65.9376   31.4974 Q5         2 LUT      0.094482
    227 H23        88.5368   65.7178   32.8700 U3         2 LUT     -0.024869
    228 H22        65.8887   59.8616   49.7644 U2         2 LUT      0.127376
    229 H21        66.5935   59.4797   51.3332 U2         2 LUT      0.127376
    230 H15        75.3353   62.6216   40.2463 T3         2 LUT      0.093200
    231 H14        74.6487   63.3848   43.1953 T2         2 LUT      0.068865
    232 H12        72.7163   62.8674   44.0985 T1         2 LUT      0.095507
    233 H11        71.2242   60.6008   42.9982 U9         2 LUT      0.068930
    234 H10        71.2859   62.1307   45.6665 U8         2 LUT      0.083911
    235 H1         88.5129   64.3928   30.8728 Q1         2 LUT      0.297311
@<TRIPOS>BOND
    1     6     1 1
    2     7     2 1
    3     8     3 1
    4     9     4 1
    5    11     4 1
    6    12     6 1
    7    13     9 1
    8    16     9 1
    9    25     5 1
   10    25    16 1
   11    26    10 1
   12    26    17 1
   13    27    18 1
   14    28    14 1
   15    28    19 1
   16    29    12 1
   17    30    13 1
   18    31    24 1
   19    32     1 1
   20    32    25 1
   21    33    21 1
   22    33    26 1
   23    34    22 1
   24    34    27 1
   25    35    23 1
   26    35    28 1
   27    36    12 1
   28    36    24 1
   29    37    13 1
   30    37    15 1
   31    38    31 1
   32    39    20 1
   33    39    32 1
   34    40     2 1
   35    40    33 1
   36    41     3 1
   37    41    34 1
   38    42     4 1
   39    42    35 1
   40    43    38 1
   41    44     5 1
   42    44    17 1
   43    44    39 1
   44    45    10 1
   45    45    18 1
   46    45    40 1
   47    46    19 1
   48    46    41 1
   49    47    14 1
   50    47    16 1
   51    47    42 1
   52    48    38 1
   53    49    48 1
   54    50    49 1
   55    51    50 1
   56    52    51 1
   57    53    51 1
   58    54    53 1
   59    55    54 1
   60    56    55 1
   61    57    56 1
   62    58    56 1
   63    59    58 1
   64    60    59 1
   65    61    60 1
   66    62    61 1
   67    63    61 1
   68    64    27 1
   69    64    46 1
   70    65     5 1
   71    65    10 1
   72    65    64 1
   73    65    14 1
   74    66    23 1
   75    67    23 1
   76    68    23 1
   77    69    22 1
   78    70    22 1
   79    71    22 1
   80    72    21 1
   81    73    21 1
   82    74    21 1
   83    75    20 1
   84    76    20 1
   85    77    20 1
   86    78    15 1
   87    79    15 1
   88    80    15 1
   89    81     8 1
   90    82     8 1
   91    83     8 1
   92    84     7 1
   93    85     7 1
   94    86     6 1
   95    87     6 1
   96    88     3 1
   97    89     3 1
   98    90     1 1
   99    91     1 1
  100    92    63 1
  101    93    63 1
  102    94    63 1
  103    95    62 1
  104    96    62 1
  105    97    62 1
  106    98    60 1
  107    99    60 1
  108   100    59 1
  109   101    59 1
  110   102    58 1
  111   103    58 1
  112   104    57 1
  113   105    57 1
  114   106    57 1
  115   107    55 1
  116   108    55 1
  117   109    54 1
  118   110    54 1
  119   111    53 1
  120   112    53 1
  121   113    19 1
  122   114    18 1
  123   115    17 1
  124   116     9 1
  125   117     2 1
  126   118    52 1
  127   119    52 1
  128   120    52 1
  129   121    51 1
  130   122    50 1
  131   123    50 1
  132   124    49 1
  133   125    49 1
  134   126    48 1
  135   127    48 1
  136   128    43 1
  137   129    43 1
  138   130    43 1
  139   131    39 1
  140   132    32 1
  141   133    31 1
  142   134    61 1
  143   135    56 1
  144   136    24 1
  145   137    24 1
  146   139   138 1
  147   140   139 1
  148   141   140 1
  149   142   140 1
  150   143   142 1
  151   144   138 1
  152   144   143 1
  153   145   144 1
  154   146   145 1
  155   147   146 1
  156   148   147 1
  157   149   148 1
  158   150   149 1
  159   151   150 1
  160   152   151 1
  161   153   152 1
  162   154   138 1
  163   155   138 1
  164   156   143 1
  165   157   147 1
  166   158   151 1
  167   160   159 1
  168   161   160 1
  169   162   161 1
  170   163   161 1
  171   164   163 1
  172   165   159 1
  173   165   164 1
  174   166   165 1
  175   167   166 1
  176   168   167 1
  177   169   168 1
  178   170   169 1
  179   171   170 1
  180   172   171 1
  181   173   172 1
  182   174   153 1
  183   174   173 1
  184   175   159 1
  185   176   159 1
  186   177   164 1
  187   178   168 1
  188   179   172 1
  189   180   179 1
  190   181   179 1
  191   182   179 1
  192   183   178 1
  193   184   178 1
  194   185   178 1
  195   186   177 1
  196   187   177 1
  197   188   177 1
  198   189   176 1
  199   190   176 1
  200   191   176 1
  201   192   175 1
  202   193   175 1
  203   194   175 1
  204   195   160 1
  205   196   160 1
  206   197   158 1
  207   198   158 1
  208   199   158 1
  209   200   157 1
  210   201   157 1
  211   202   157 1
  212   203   156 1
  213   204   156 1
  214   205   156 1
  215   206   155 1
  216   207   155 1
  217   208   155 1
  218   209   154 1
  219   210   154 1
  220   211   154 1
  221   212   141 1
  222   213   146 1
  223   214   145 1
  224   215   142 1
  225   216   142 1
  226   217   174 1
  227   218   173 1
  228   219   171 1
  229   220   170 1
  230   221   169 1
  231   222   140 1
  232   223   167 1
  233   224   166 1
  234   225   165 1
  235   226   163 1
  236   227   161 1
  237   228   139 1
  238   229   139 1
  239   230   153 1
  240   231   152 1
  241   232   150 1
  242   233   149 1
  243   234   148 1
  244   235   162 1
  245   65    153 1
  246   65    174 1
@<TRIPOS>SUBSTRUCTURE
      1 CLA               1 ****               0 ****  **** 
      2 LUT             138 ****               0 ****  **** 
