@<TRIPOS>MOLECULE
Cpptraj generated mol2 file.
  235   246     2     0     0
SMALL
USER_CHARGES


@<TRIPOS>ATOM
      1 CAA        77.5031   57.6144   35.4022 a2         1 CLA     -0.055900
      2 CAB        77.0493   62.2585   44.1855 c8         1 CLA     -0.148500
      3 CAC        70.0246   58.2097   43.5107 a2         1 CLA     -0.012600
      4 CAD        73.1713   55.3241   36.7147 ck         1 CLA      0.398800
      5 NA         76.2676   58.4195   38.7696 ns         1 CLA     -0.225500
      6 CBA        78.9098   57.5535   34.7301 a2         1 CLA     -0.135000
      7 CBB        77.7893   62.0947   45.2708 c0         1 CLA     -0.395200
      8 CBC        69.9209   56.6772   43.5446 a3         1 CLA     -0.037700
      9 CBD        74.6951   55.6616   36.5754 a1         1 CLA     -0.053900
     10 NB         76.1168   60.0639   41.2511 nm         1 CLA     -0.295700
     11 OBD        72.5788   54.5237   36.0431 o2         1 CLA     -0.494600
     12 CGA        79.3750   56.1567   34.3014 c4         1 CLA      0.827000
     13 CGD        75.5310   54.3939   36.6841 c4         1 CLA      0.655300
     14 ND         73.3944   57.8245   39.1967 nm         1 CLA     -0.291600
     15 CED        76.0494   52.4853   38.1407 a3         1 CLA      0.005400
     16 CHA        74.9911   56.7587   37.5605 cs         1 CLA     -0.123800
     17 CHB        78.0721   59.6098   39.9375 aa         1 CLA     -0.291900
     18 CHC        74.6570   60.6209   43.1014 aa         1 CLA     -0.090400
     19 CHD        71.3958   57.8182   40.5997 aa         1 CLA     -0.052000
     20 CMA        79.5014   57.2303   38.5715 a3         1 CLA     -0.230700
     21 CMB        79.4681   61.4532   41.9468 a3         1 CLA     -0.180800
     22 CMC        72.0853   60.2708   45.1212 a3         1 CLA     -0.134000
     23 CMD        70.1615   55.9942   38.3942 a3         1 CLA     -0.141100
     24 C1         79.9185   53.9720   35.1191 a2         1 CLA      0.023000
     25 C1A        76.1771   57.4889   37.7568 ac         1 CLA     -0.015100
     26 C1B        77.4431   60.2073   41.0015 cr         1 CLA      0.054700
     27 C1C        73.4431   59.8819   42.8167 cn         1 CLA     -0.005600
     28 C1D        72.0487   57.4495   39.4459 ap         1 CLA     -0.047300
     29 O1A        79.3665   55.7046   33.1660 o2         1 CLA     -0.610800
     30 O1D        76.4465   53.9852   35.9671 o2         1 CLA     -0.558200
     31 C2         79.9982   53.0921   36.3775 c8         1 CLA     -0.325100
     32 C2A        77.5086   57.2774   37.0099 a1         1 CLA      0.098600
     33 C2B        78.0611   61.0784   42.0182 cb         1 CLA      0.088500
     34 C2C        72.2226   59.7433   43.6475 cb         1 CLA      0.053700
     35 C2D        71.4804   56.6092   38.4253 cb         1 CLA      0.058900
     36 O2A        79.5385   55.3704   35.4314 o1         1 CLA     -0.437200
     37 O2D        75.2381   53.6980   37.8115 o1         1 CLA     -0.357600
     38 C3         81.0822   52.8476   37.1427 c5         1 CLA      0.031200
     39 C3A        78.4561   58.1495   37.8448 a1         1 CLA      0.166800
     40 C3B        77.0593   61.4027   42.9370 cb         1 CLA      0.035000
     41 C3C        71.3620   58.8039   42.9891 cb         1 CLA     -0.089900
     42 C3D        72.6929   56.2221   37.7363 cb         1 CLA     -0.035900
     43 C4         82.1492   51.8794   36.6986 a3         1 CLA     -0.053300
     44 C4A        77.5699   58.8049   38.8763 ac         1 CLA      0.001800
     45 C4B        75.8504   60.7343   42.4359 cn         1 CLA     -0.020900
     46 C4C        71.9338   58.5651   41.6936 cr         1 CLA     -0.044400
     47 C4D        73.7448   57.0527   38.1924 c6         1 CLA     -0.046000
     48 C5         81.3926   53.8256   38.3173 a2         1 CLA     -0.070400
     49 C6         82.5949   54.7647   38.0223 a2         1 CLA      0.043900
     50 C7         82.9884   55.4627   39.3459 a2         1 CLA     -0.150000
     51 C8         83.6558   56.8601   39.2590 a1         1 CLA      0.064200
     52 C9         84.9126   56.7789   38.3657 a3         1 CLA     -0.259300
     53 C10        84.0234   57.4214   40.5636 a2         1 CLA     -0.071900
     54 C11        82.8541   57.5395   41.5763 a2         1 CLA      0.014500
     55 C12        82.9396   58.4270   42.8511 a2         1 CLA     -0.112100
     56 C13        83.4724   57.8027   44.2072 a1         1 CLA      0.089200
     57 C14        82.5924   56.5564   44.6125 a3         1 CLA     -0.239100
     58 C15        83.5714   58.7979   45.4701 a2         1 CLA     -0.102200
     59 C16        82.3230   59.5463   45.8633 a2         1 CLA      0.023900
     60 C17        82.4141   60.6670   47.0006 a2         1 CLA     -0.105700
     61 C18        81.1236   61.4003   47.4389 a1         1 CLA      0.206800
     62 C19        80.1704   60.4449   48.0937 a3         1 CLA     -0.280100
     63 C20        81.4330   62.5366   48.4216 a3         1 CLA     -0.280100
     64 NC         73.2163   59.2534   41.6533 nx         1 CLA     -0.309200
     65 MG         74.7213   59.0564   40.1219 mg         1 CLA      0.895000
     66 HMD3       69.9282   55.9028   37.3505 dc         1 CLA      0.064300
     67 HMD2       70.1277   55.0683   39.0144 dc         1 CLA      0.064300
     68 HMD1       69.4647   56.7245   38.7696 dc         1 CLA      0.064300
     69 HMC3       72.7139   59.7906   45.8475 dc         1 CLA      0.052100
     70 HMC2       72.3557   61.3115   44.9546 dc         1 CLA      0.052100
     71 HMC1       71.0045   60.1854   45.4568 dc         1 CLA      0.052100
     72 HMB3       79.6204   62.1594   41.1204 dc         1 CLA      0.063600
     73 HMB2       79.7572   61.8527   42.9076 dc         1 CLA      0.063600
     74 HMB1       79.9754   60.5205   41.7755 dc         1 CLA      0.063600
     75 HMA3       80.1716   56.7127   37.8634 dc         1 CLA      0.058300
     76 HMA2       80.0937   57.8746   39.2239 dc         1 CLA      0.058300
     77 HMA1       79.0408   56.3766   39.1905 dc         1 CLA      0.058300
     78 HED3       77.0751   52.5881   37.9597 dc         1 CLA      0.079300
     79 HED2       75.8930   52.1215   39.1616 dc         1 CLA      0.079300
     80 HED1       75.6916   51.6573   37.4977 dc         1 CLA      0.079300
     81 HBC3       68.9050   56.2859   43.7050 dc         1 CLA      0.016300
     82 HBC2       70.1884   56.3797   42.5560 dc         1 CLA      0.016300
     83 HBC1       70.5725   56.2063   44.2903 dc         1 CLA      0.016300
     84 HBB2       77.7433   62.6131   46.2145 da         1 CLA      0.183000
     85 HBB1       78.4610   61.2070   45.3203 da         1 CLA      0.183000
     86 HBA2       78.7750   58.2047   33.8632 dc         1 CLA      0.029400
     87 HBA1       79.6426   58.0174   35.3332 dc         1 CLA      0.029400
     88 HAC2       69.8745   58.4097   44.5528 dc         1 CLA      0.029300
     89 HAC1       69.1796   58.7033   43.0664 dc         1 CLA      0.029300
     90 HAA2       76.9021   56.8783   34.9092 dc         1 CLA      0.028700
     91 HAA1       77.1005   58.6184   35.2393 dc         1 CLA      0.028700
     92 H203       80.5324   62.8851   48.9366 dc         1 CLA      0.065600
     93 H202       82.1442   62.1679   49.1493 dc         1 CLA      0.065600
     94 H201       81.8899   63.4094   47.9401 dc         1 CLA      0.065600
     95 H193       79.3256   61.0544   48.4602 dc         1 CLA      0.065600
     96 H192       79.7407   59.8932   47.2402 dc         1 CLA      0.065600
     97 H191       80.4357   59.8893   48.9900 dc         1 CLA      0.065600
     98 H172       82.7399   60.1869   47.8625 dc         1 CLA      0.027600
     99 H171       83.1884   61.3912   46.7154 dc         1 CLA      0.027600
    100 H162       82.0104   59.9648   44.8839 dc         1 CLA      0.002900
    101 H161       81.4893   58.8393   46.0773 dc         1 CLA      0.002900
    102 H152       83.8859   58.3112   46.4082 dc         1 CLA      0.029100
    103 H151       84.2619   59.6072   45.2144 dc         1 CLA      0.029100
    104 H143       81.5320   56.8711   44.4486 dc         1 CLA      0.063600
    105 H142       83.0312   55.6869   44.0075 dc         1 CLA      0.063600
    106 H141       82.8122   56.2835   45.6647 dc         1 CLA      0.063600
    107 H122       83.7588   59.0935   42.6706 dc         1 CLA      0.032500
    108 H121       81.9774   58.9487   43.0205 dc         1 CLA      0.032500
    109 H112       82.0249   58.0374   41.0056 dc         1 CLA      0.006600
    110 H111       82.6155   56.5068   41.8551 dc         1 CLA      0.006600
    111 H102       84.7117   56.7608   41.0425 dc         1 CLA      0.024100
    112 H101       84.5113   58.3263   40.3818 dc         1 CLA      0.024100
    113 HHD        70.3373   57.5673   40.7311 da         1 CLA      0.174300
    114 HHC        74.6463   61.3137   43.9649 da         1 CLA      0.136800
    115 HHB        79.1111   59.7165   39.9731 da         1 CLA      0.138300
    116 HBD        74.7887   55.9795   35.5645 dc         1 CLA      0.107700
    117 HAB        76.3725   63.1046   44.1720 da         1 CLA      0.155200
    118 H93        85.7013   56.1721   38.7885 dc         1 CLA      0.069500
    119 H92        84.7430   56.4018   37.4310 dc         1 CLA      0.069500
    120 H91        85.3012   57.8129   38.2754 dc         1 CLA      0.069500
    121 H8         82.9276   57.5521   38.8221 dc         1 CLA      0.029300
    122 H72        81.9508   55.5903   39.8296 dc         1 CLA      0.044400
    123 H71        83.6228   54.8282   39.8858 dc         1 CLA      0.044400
    124 H62        83.4056   54.1028   37.7775 dc         1 CLA      0.015600
    125 H61        82.4693   55.4815   37.1749 dc         1 CLA      0.015600
    126 H52        80.4451   54.3330   38.3141 dc         1 CLA      0.033200
    127 H51        81.3909   53.1948   39.1811 dc         1 CLA      0.033200
    128 H43        81.9706   51.2936   35.7920 dc         1 CLA      0.037000
    129 H42        82.8143   52.5962   36.2908 dc         1 CLA      0.037000
    130 H41        82.4801   51.4296   37.6536 dc         1 CLA      0.037000
    131 H3A        78.9149   58.9960   37.3078 dc         1 CLA      0.041100
    132 H2A        77.8505   56.2423   36.9992 dc         1 CLA      0.083100
    133 H2         79.0347   52.5675   36.6922 da         1 CLA      0.180900
    134 H18        80.5397   61.8920   46.6342 dc         1 CLA     -0.003900
    135 H13        84.4503   57.4119   44.1607 dc         1 CLA      0.019700
    136 H12        79.0746   53.5233   34.5896 dc         1 CLA      0.120400
    137 H11        80.8195   53.8356   34.5201 dc         1 CLA      0.120400
    138 C1         67.1798   61.9654   50.3197 Z1         2 LUT      0.509236
    139 C2         65.8795   61.9802   51.0775 Z2         2 LUT     -0.434695
    140 C3         65.1832   63.2693   51.4652 Z3         2 LUT      0.437453
    141 O3         65.5314   63.5662   52.7843 S1         2 LUT     -0.547129
    142 C4         65.6025   64.4433   50.6369 Z4         2 LUT     -0.468603
    143 C5         66.2944   64.1125   49.2597 Z5         2 LUT      0.279246
    144 C6         66.9887   62.9652   49.1093 Z6         2 LUT     -0.305473
    145 C7         67.5478   62.5510   47.7533 Z7         2 LUT      0.069402
    146 C8         68.4217   63.2668   46.9193 Z8         2 LUT     -0.191631
    147 C9         68.9342   62.9275   45.5940 Z9         2 LUT      0.196698
    148 C10        70.1117   63.5882   45.1609 Y1         2 LUT     -0.208611
    149 C11        70.8048   63.2977   43.8990 Y2         2 LUT      0.030784
    150 C12        71.9919   63.8912   43.5913 Y3         2 LUT     -0.220316
    151 C13        72.8370   63.6734   42.4151 Y4         2 LUT      0.215937
    152 C14        74.0086   64.3511   42.3612 Y5         2 LUT     -0.185793
    153 C15        75.1386   64.2964   41.4620 Y6         2 LUT     -0.057835
    154 C16        67.5511   60.5204   50.0339 Y7         2 LUT     -0.405615
    155 C17        68.2923   62.4466   51.3729 Y7         2 LUT     -0.405615
    156 C18        65.8490   65.0414   48.1035 Y9         2 LUT     -0.369639
    157 C19        68.2839   61.7695   44.7659 W1         2 LUT     -0.333362
    158 C20        72.4073   62.7677   41.2978 W2         2 LUT     -0.323439
    159 C21        86.7219   64.8812   35.9743 Z1         2 LUT      0.406104
    160 C22        87.5462   64.3569   34.8244 Z2         2 LUT     -0.404965
    161 C23        87.8522   65.3431   33.6891 Z3         2 LUT      0.391255
    162 O23        88.4490   64.6378   32.6052 S1         2 LUT     -0.528210
    163 C24        86.5941   66.1301   33.3668 W6         2 LUT     -0.258361
    164 C25        85.4347   66.1316   34.0104 Z5         2 LUT      0.133546
    165 C26        85.3089   65.3370   35.3408 W8         2 LUT     -0.147008
    166 C27        84.4198   66.1018   36.3407 Z7         2 LUT      0.023843
    167 C28        83.3509   65.5188   36.8959 Z8         2 LUT     -0.216987
    168 C29        82.7876   66.0147   38.1502 Z9         2 LUT      0.206524
    169 C30        81.5983   65.4406   38.4590 Y1         2 LUT     -0.215556
    170 C31        80.8453   65.7809   39.5815 Y2         2 LUT      0.025142
    171 C32        79.6356   65.1782   39.8309 Y3         2 LUT     -0.212209
    172 C33        78.6951   65.4731   40.9082 Y4         2 LUT      0.240937
    173 C34        77.5197   64.7228   40.8033 Y5         2 LUT     -0.218862
    174 C35        76.3273   64.9056   41.5920 Y6         2 LUT     -0.023547
    175 C36        87.4864   66.0856   36.6408 Y7         2 LUT     -0.393485
    176 C37        86.7259   63.6461   36.9230 Y7         2 LUT     -0.393485
    177 C38        84.2663   66.9638   33.5602 Y9         2 LUT     -0.387526
    178 C39        83.4185   67.1480   38.8663 W1         2 LUT     -0.322618
    179 C40        78.9002   66.7700   41.7050 W2         2 LUT     -0.358472
    180 H403       79.3206   67.5973   41.0939 R7         2 LUT      0.097720
    181 H402       77.8782   67.1423   42.0329 R7         2 LUT      0.097720
    182 H401       79.5459   66.5634   42.6092 R7         2 LUT      0.097720
    183 H393       83.2319   67.0792   39.9507 R4         2 LUT      0.082505
    184 H392       84.5215   67.1957   38.8479 R4         2 LUT      0.082505
    185 H391       83.0668   68.1447   38.6178 R4         2 LUT      0.082505
    186 H383       84.4773   67.4164   32.5548 R1         2 LUT      0.104030
    187 H382       83.4287   66.3137   33.5754 R1         2 LUT      0.104030
    188 H381       84.0417   67.7659   34.2319 R1         2 LUT      0.104030
    189 H373       86.3117   63.8332   37.9079 T4         2 LUT      0.089537
    190 H372       86.2180   62.8414   36.5260 T4         2 LUT      0.089537
    191 H371       87.7712   63.4406   37.2001 T4         2 LUT      0.089537
    192 H363       87.6244   66.9665   35.9742 T4         2 LUT      0.089537
    193 H362       86.9053   66.3488   37.5270 T4         2 LUT      0.089537
    194 H361       88.4377   65.8117   36.9855 T4         2 LUT      0.089537
    195 H222       88.5111   63.9879   35.2079 U2         2 LUT      0.127376
    196 H221       86.8328   63.5951   34.4374 U2         2 LUT      0.127376
    197 H203       73.1509   62.0793   40.9275 R7         2 LUT      0.087068
    198 H202       71.6802   61.9935   41.5331 R7         2 LUT      0.087068
    199 H201       71.8402   63.2253   40.4937 R7         2 LUT      0.087068
    200 H193       68.7792   60.7820   44.8072 R4         2 LUT      0.089716
    201 H192       67.2871   61.5683   45.0829 R4         2 LUT      0.089716
    202 H191       68.2632   62.1882   43.7792 R4         2 LUT      0.089716
    203 H183       64.7433   65.0574   48.1045 R1         2 LUT      0.094572
    204 H182       66.3018   66.0389   48.1152 R1         2 LUT      0.094572
    205 H181       66.0839   64.7328   47.1221 R1         2 LUT      0.094572
    206 H173       68.2088   61.9043   52.3399 T4         2 LUT      0.093752
    207 H172       69.2026   62.0405   50.9635 T4         2 LUT      0.093752
    208 H171       68.5138   63.5285   51.4524 T4         2 LUT      0.093752
    209 H163       66.9022   60.0658   49.3028 T4         2 LUT      0.093752
    210 H162       68.5988   60.3616   49.7671 T4         2 LUT      0.093752
    211 H161       67.4031   59.9295   50.9322 T4         2 LUT      0.093752
    212 HO3        65.0109   63.1995   53.4639 Q1         2 LUT      0.300121
    213 H8         68.6917   64.2518   47.3824 U7         2 LUT      0.080784
    214 H7         67.3994   61.5270   47.4238 U6         2 LUT      0.042190
    215 H42        64.6757   64.9387   50.3520 U5         2 LUT      0.145166
    216 H41        66.2029   65.2852   51.0918 U5         2 LUT      0.145166
    217 H35        76.5666   65.4042   42.4749 T3         2 LUT      0.077919
    218 H34        77.4560   63.8307   40.1600 T2         2 LUT      0.073626
    219 H32        79.2545   64.4572   39.1210 T1         2 LUT      0.092510
    220 H31        81.2104   66.4873   40.3171 U9         2 LUT      0.070048
    221 H30        81.2926   64.6184   37.8265 U8         2 LUT      0.085442
    222 H3         64.1373   63.2546   51.2574 U3         2 LUT     -0.031596
    223 H28        82.9160   64.5965   36.4584 U7         2 LUT      0.084728
    224 H27        84.8890   66.9524   36.7857 U6         2 LUT      0.087291
    225 H26        84.7703   64.3858   35.1827 Q6         2 LUT      0.075325
    226 H24        86.6719   66.7533   32.4648 Q5         2 LUT      0.094482
    227 H23        88.5636   66.0130   34.0957 U3         2 LUT     -0.024869
    228 H22        65.2420   61.2416   50.6641 U2         2 LUT      0.127376
    229 H21        65.9956   61.4399   52.0325 U2         2 LUT      0.127376
    230 H15        75.0195   63.7270   40.5082 T3         2 LUT      0.093200
    231 H14        74.2103   65.0084   43.2240 T2         2 LUT      0.068865
    232 H12        72.3498   64.6228   44.3165 T1         2 LUT      0.095507
    233 H11        70.4208   62.4815   43.2895 U9         2 LUT      0.068930
    234 H10        70.5397   64.3536   45.8443 U8         2 LUT      0.083911
    235 H1         87.8393   64.4257   31.8959 Q1         2 LUT      0.297311
@<TRIPOS>BOND
    1     6     1 1
    2     7     2 1
    3     8     3 1
    4     9     4 1
    5    11     4 1
    6    12     6 1
    7    13     9 1
    8    16     9 1
    9    25     5 1
   10    25    16 1
   11    26    10 1
   12    26    17 1
   13    27    18 1
   14    28    14 1
   15    28    19 1
   16    29    12 1
   17    30    13 1
   18    31    24 1
   19    32     1 1
   20    32    25 1
   21    33    21 1
   22    33    26 1
   23    34    22 1
   24    34    27 1
   25    35    23 1
   26    35    28 1
   27    36    12 1
   28    36    24 1
   29    37    13 1
   30    37    15 1
   31    38    31 1
   32    39    20 1
   33    39    32 1
   34    40     2 1
   35    40    33 1
   36    41     3 1
   37    41    34 1
   38    42     4 1
   39    42    35 1
   40    43    38 1
   41    44     5 1
   42    44    17 1
   43    44    39 1
   44    45    10 1
   45    45    18 1
   46    45    40 1
   47    46    19 1
   48    46    41 1
   49    47    14 1
   50    47    16 1
   51    47    42 1
   52    48    38 1
   53    49    48 1
   54    50    49 1
   55    51    50 1
   56    52    51 1
   57    53    51 1
   58    54    53 1
   59    55    54 1
   60    56    55 1
   61    57    56 1
   62    58    56 1
   63    59    58 1
   64    60    59 1
   65    61    60 1
   66    62    61 1
   67    63    61 1
   68    64    27 1
   69    64    46 1
   70    65     5 1
   71    65    10 1
   72    65    64 1
   73    65    14 1
   74    66    23 1
   75    67    23 1
   76    68    23 1
   77    69    22 1
   78    70    22 1
   79    71    22 1
   80    72    21 1
   81    73    21 1
   82    74    21 1
   83    75    20 1
   84    76    20 1
   85    77    20 1
   86    78    15 1
   87    79    15 1
   88    80    15 1
   89    81     8 1
   90    82     8 1
   91    83     8 1
   92    84     7 1
   93    85     7 1
   94    86     6 1
   95    87     6 1
   96    88     3 1
   97    89     3 1
   98    90     1 1
   99    91     1 1
  100    92    63 1
  101    93    63 1
  102    94    63 1
  103    95    62 1
  104    96    62 1
  105    97    62 1
  106    98    60 1
  107    99    60 1
  108   100    59 1
  109   101    59 1
  110   102    58 1
  111   103    58 1
  112   104    57 1
  113   105    57 1
  114   106    57 1
  115   107    55 1
  116   108    55 1
  117   109    54 1
  118   110    54 1
  119   111    53 1
  120   112    53 1
  121   113    19 1
  122   114    18 1
  123   115    17 1
  124   116     9 1
  125   117     2 1
  126   118    52 1
  127   119    52 1
  128   120    52 1
  129   121    51 1
  130   122    50 1
  131   123    50 1
  132   124    49 1
  133   125    49 1
  134   126    48 1
  135   127    48 1
  136   128    43 1
  137   129    43 1
  138   130    43 1
  139   131    39 1
  140   132    32 1
  141   133    31 1
  142   134    61 1
  143   135    56 1
  144   136    24 1
  145   137    24 1
  146   139   138 1
  147   140   139 1
  148   141   140 1
  149   142   140 1
  150   143   142 1
  151   144   138 1
  152   144   143 1
  153   145   144 1
  154   146   145 1
  155   147   146 1
  156   148   147 1
  157   149   148 1
  158   150   149 1
  159   151   150 1
  160   152   151 1
  161   153   152 1
  162   154   138 1
  163   155   138 1
  164   156   143 1
  165   157   147 1
  166   158   151 1
  167   160   159 1
  168   161   160 1
  169   162   161 1
  170   163   161 1
  171   164   163 1
  172   165   159 1
  173   165   164 1
  174   166   165 1
  175   167   166 1
  176   168   167 1
  177   169   168 1
  178   170   169 1
  179   171   170 1
  180   172   171 1
  181   173   172 1
  182   174   153 1
  183   174   173 1
  184   175   159 1
  185   176   159 1
  186   177   164 1
  187   178   168 1
  188   179   172 1
  189   180   179 1
  190   181   179 1
  191   182   179 1
  192   183   178 1
  193   184   178 1
  194   185   178 1
  195   186   177 1
  196   187   177 1
  197   188   177 1
  198   189   176 1
  199   190   176 1
  200   191   176 1
  201   192   175 1
  202   193   175 1
  203   194   175 1
  204   195   160 1
  205   196   160 1
  206   197   158 1
  207   198   158 1
  208   199   158 1
  209   200   157 1
  210   201   157 1
  211   202   157 1
  212   203   156 1
  213   204   156 1
  214   205   156 1
  215   206   155 1
  216   207   155 1
  217   208   155 1
  218   209   154 1
  219   210   154 1
  220   211   154 1
  221   212   141 1
  222   213   146 1
  223   214   145 1
  224   215   142 1
  225   216   142 1
  226   217   174 1
  227   218   173 1
  228   219   171 1
  229   220   170 1
  230   221   169 1
  231   222   140 1
  232   223   167 1
  233   224   166 1
  234   225   165 1
  235   226   163 1
  236   227   161 1
  237   228   139 1
  238   229   139 1
  239   230   153 1
  240   231   152 1
  241   232   150 1
  242   233   149 1
  243   234   148 1
  244   235   162 1
  245   65    153 1
  246   65    174 1
@<TRIPOS>SUBSTRUCTURE
      1 CLA               1 ****               0 ****  **** 
      2 LUT             138 ****               0 ****  **** 
