@<TRIPOS>MOLECULE
Cpptraj generated mol2 file.
  235   246     2     0     0
SMALL
USER_CHARGES


@<TRIPOS>ATOM
      1 CAA        80.1581   58.3479   34.8395 a2         1 CLA     -0.055900
      2 CAB        80.4147   62.5930   43.8228 c8         1 CLA     -0.148500
      3 CAC        73.3597   58.7014   43.7025 a2         1 CLA     -0.012600
      4 CAD        75.7609   55.9016   36.3681 ck         1 CLA      0.398800
      5 NA         79.0757   58.9163   38.3754 ns         1 CLA     -0.225500
      6 CBA        81.5321   58.2423   34.2110 a2         1 CLA     -0.135000
      7 CBB        81.5400   62.5742   44.5582 c0         1 CLA     -0.395200
      8 CBC        73.5241   57.2200   43.8292 a3         1 CLA     -0.037700
      9 CBD        77.3043   56.3493   35.9775 a1         1 CLA     -0.053900
     10 NB         79.0515   60.6293   40.8445 nm         1 CLA     -0.295700
     11 OBD        75.0358   55.1281   35.7408 o2         1 CLA     -0.494600
     12 CGA        82.0116   56.8385   33.8569 c4         1 CLA      0.827000
     13 CGD        78.2353   55.1776   35.7838 c4         1 CLA      0.655300
     14 ND         76.2119   58.2050   38.9972 nm         1 CLA     -0.291600
     15 CED        79.3121   53.1658   36.7631 a3         1 CLA      0.005400
     16 CHA        77.6698   57.3562   37.0729 cs         1 CLA     -0.123800
     17 CHB        80.7850   60.4541   39.1285 aa         1 CLA     -0.291900
     18 CHC        77.8224   60.8899   42.9987 aa         1 CLA     -0.090400
     19 CHD        74.4286   58.3494   40.7197 aa         1 CLA     -0.052000
     20 CMA        82.5393   58.0255   37.6616 a3         1 CLA     -0.230700
     21 CMB        82.3522   62.2754   41.1772 a3         1 CLA     -0.180800
     22 CMC        75.6194   60.3528   45.1542 a3         1 CLA     -0.134000
     23 CMD        73.1097   56.1560   38.6615 a3         1 CLA     -0.141100
     24 C1         82.6484   54.7220   34.7758 a2         1 CLA      0.023000
     25 C1A        78.8717   58.0821   37.2509 ac         1 CLA     -0.015100
     26 C1B        80.3279   60.9029   40.3756 cr         1 CLA      0.054700
     27 C1C        76.6405   60.1439   42.7690 cn         1 CLA     -0.005600
     28 C1D        74.9438   57.8761   39.4482 ap         1 CLA     -0.047300
     29 O1A        81.7959   56.2536   32.8363 o2         1 CLA     -0.610800
     30 O1D        78.9313   54.9753   34.8014 o2         1 CLA     -0.558200
     31 C2         83.6157   54.4544   35.8355 c8         1 CLA     -0.325100
     32 C2A        80.2013   57.9099   36.3721 a1         1 CLA      0.098600
     33 C2B        81.0083   61.7429   41.3592 cb         1 CLA      0.088500
     34 C2C        75.6137   59.9767   43.7077 cb         1 CLA      0.053700
     35 C2D        74.3948   56.8514   38.5462 cb         1 CLA      0.058900
     36 O2A        82.5448   56.1794   34.9920 o1         1 CLA     -0.437200
     37 O2D        78.2903   54.2366   36.7707 o1         1 CLA     -0.357600
     38 C3         84.8067   53.7835   35.7295 c5         1 CLA      0.031200
     39 C3A        81.2042   58.7580   37.2010 a1         1 CLA      0.166800
     40 C3B        80.1823   61.8619   42.5053 cb         1 CLA      0.035000
     41 C3C        74.6265   59.2618   43.0791 cb         1 CLA     -0.089900
     42 C3D        75.4414   56.6564   37.5955 cb         1 CLA     -0.035900
     43 C4         84.9199   52.2893   35.7342 a3         1 CLA     -0.053300
     44 C4A        80.3540   59.4212   38.3129 ac         1 CLA      0.001800
     45 C4B        78.9248   61.1710   42.1383 cn         1 CLA     -0.020900
     46 C4C        75.0651   59.0717   41.7310 cr         1 CLA     -0.044400
     47 C4D        76.5476   57.4631   37.9679 c6         1 CLA     -0.046000
     48 C5         86.0929   54.5344   35.2517 a2         1 CLA     -0.070400
     49 C6         86.3550   55.7433   36.1006 a2         1 CLA      0.043900
     50 C7         86.7947   55.5431   37.5607 a2         1 CLA     -0.150000
     51 C8         87.0499   56.9043   38.3787 a1         1 CLA      0.064200
     52 C9         88.2919   57.6598   37.9252 a3         1 CLA     -0.259300
     53 C10        87.1108   56.5235   39.8665 a2         1 CLA     -0.071900
     54 C11        87.1952   57.6302   40.9550 a2         1 CLA      0.014500
     55 C12        87.3518   57.1346   42.4603 a2         1 CLA     -0.112100
     56 C13        88.8234   56.9570   43.0013 a1         1 CLA      0.089200
     57 C14        89.7249   56.0477   42.1004 a3         1 CLA     -0.239100
     58 C15        88.6740   56.2488   44.3646 a2         1 CLA     -0.102200
     59 C16        88.0470   56.9386   45.5888 a2         1 CLA      0.023900
     60 C17        88.4073   56.3670   46.9621 a2         1 CLA     -0.105700
     61 C18        88.0311   57.1876   48.1609 a1         1 CLA      0.206800
     62 C19        86.4588   57.4194   48.2748 a3         1 CLA     -0.280100
     63 C20        88.5897   56.4293   49.4264 a3         1 CLA     -0.280100
     64 NC         76.2800   59.6796   41.5405 nx         1 CLA     -0.309200
     65 MG         77.5993   59.4698   39.8603 mg         1 CLA      0.895000
     66 HMD3       72.9063   55.7078   37.7030 dc         1 CLA      0.064300
     67 HMD2       73.2523   55.4235   39.4581 dc         1 CLA      0.064300
     68 HMD1       72.2666   56.7958   38.8665 dc         1 CLA      0.064300
     69 HMC3       76.5971   60.3809   45.5472 dc         1 CLA      0.052100
     70 HMC2       75.1389   61.2964   45.3763 dc         1 CLA      0.052100
     71 HMC1       75.1711   59.5240   45.6855 dc         1 CLA      0.052100
     72 HMB3       82.5928   63.1662   41.7366 dc         1 CLA      0.063600
     73 HMB2       83.0638   61.5012   41.4069 dc         1 CLA      0.063600
     74 HMB1       82.4473   62.5318   40.0749 dc         1 CLA      0.063600
     75 HMA3       83.0623   57.5570   36.8238 dc         1 CLA      0.058300
     76 HMA2       83.2092   58.8461   38.1165 dc         1 CLA      0.058300
     77 HMA1       82.3919   57.2885   38.3638 dc         1 CLA      0.058300
     78 HED3       79.4385   52.8301   37.7640 dc         1 CLA      0.079300
     79 HED2       79.1568   52.4042   36.0550 dc         1 CLA      0.079300
     80 HED1       80.2677   53.6220   36.5960 dc         1 CLA      0.079300
     81 HBC3       74.0232   57.0599   44.8088 dc         1 CLA      0.016300
     82 HBC2       72.5631   56.6077   43.8670 dc         1 CLA      0.016300
     83 HBC1       74.0971   56.8115   42.9893 dc         1 CLA      0.016300
     84 HBB2       81.6234   62.9453   45.5813 da         1 CLA      0.183000
     85 HBB1       82.3317   61.9009   44.1756 da         1 CLA      0.183000
     86 HBA2       81.6099   58.8444   33.2598 dc         1 CLA      0.029400
     87 HBA1       82.2673   58.6088   34.8633 dc         1 CLA      0.029400
     88 HAC2       73.1395   58.9646   44.7513 dc         1 CLA      0.029300
     89 HAC1       72.5187   58.8748   43.0953 dc         1 CLA      0.029300
     90 HAA2       79.3963   57.8709   34.3532 dc         1 CLA      0.028700
     91 HAA1       80.0250   59.4045   34.8826 dc         1 CLA      0.028700
     92 H203       88.0402   55.5242   49.7142 dc         1 CLA      0.065600
     93 H202       89.6619   56.2175   49.3264 dc         1 CLA      0.065600
     94 H201       88.4982   56.9478   50.3774 dc         1 CLA      0.065600
     95 H193       86.1818   58.2658   47.5766 dc         1 CLA      0.065600
     96 H192       85.8929   56.5206   48.0784 dc         1 CLA      0.065600
     97 H191       86.1950   57.6975   49.2395 dc         1 CLA      0.065600
     98 H172       88.0314   55.3279   47.0016 dc         1 CLA      0.027600
     99 H171       89.5429   56.3159   47.0284 dc         1 CLA      0.027600
    100 H162       88.3113   58.0081   45.5264 dc         1 CLA      0.002900
    101 H161       86.9655   57.0261   45.5391 dc         1 CLA      0.002900
    102 H152       88.2565   55.3127   44.1769 dc         1 CLA      0.029100
    103 H151       89.6044   55.9053   44.7390 dc         1 CLA      0.029100
    104 H143       90.6917   55.9721   42.5651 dc         1 CLA      0.063600
    105 H142       89.3679   55.0642   42.1731 dc         1 CLA      0.063600
    106 H141       89.8288   56.4755   41.1330 dc         1 CLA      0.063600
    107 H122       86.7687   57.7490   43.2167 dc         1 CLA      0.032500
    108 H121       86.8041   56.2195   42.6226 dc         1 CLA      0.032500
    109 H112       88.1293   58.0997   40.7523 dc         1 CLA      0.006600
    110 H111       86.3870   58.3762   40.9550 dc         1 CLA      0.006600
    111 H102       86.2296   56.0105   40.1695 dc         1 CLA      0.024100
    112 H101       87.9586   55.8186   40.0022 dc         1 CLA      0.024100
    113 HHD        73.4775   57.8288   40.9545 da         1 CLA      0.174300
    114 HHC        77.8823   61.3227   44.0315 da         1 CLA      0.136800
    115 HHB        81.8051   60.7453   38.8743 da         1 CLA      0.138300
    116 HBD        77.2907   56.9243   35.0104 dc         1 CLA      0.107700
    117 HAB        79.5443   63.1575   44.1956 da         1 CLA      0.155200
    118 H93        89.1795   56.9727   38.0375 dc         1 CLA      0.069500
    119 H92        88.1483   57.9325   36.8667 dc         1 CLA      0.069500
    120 H91        88.5783   58.5853   38.4191 dc         1 CLA      0.069500
    121 H8         86.1767   57.5239   38.2653 dc         1 CLA      0.029300
    122 H72        86.0085   54.9093   38.0115 dc         1 CLA      0.044400
    123 H71        87.6426   54.8233   37.5235 dc         1 CLA      0.044400
    124 H62        87.1090   56.3999   35.6531 dc         1 CLA      0.015600
    125 H61        85.5140   56.3520   36.0894 dc         1 CLA      0.015600
    126 H52        87.0147   53.9190   35.3947 dc         1 CLA      0.033200
    127 H51        85.9537   54.8295   34.1567 dc         1 CLA      0.033200
    128 H43        84.9614   51.8216   34.7298 dc         1 CLA      0.037000
    129 H42        85.9008   51.9555   36.1971 dc         1 CLA      0.037000
    130 H41        84.0602   51.7954   36.2828 dc         1 CLA      0.037000
    131 H3A        81.5161   59.6905   36.6537 dc         1 CLA      0.041100
    132 H2A        80.3690   56.8197   36.5164 dc         1 CLA      0.083100
    133 H2         83.4046   54.7675   36.8381 da         1 CLA      0.180900
    134 H18        88.6299   58.1711   48.2574 dc         1 CLA     -0.003900
    135 H13        89.3625   57.8730   43.2149 dc         1 CLA      0.019700
    136 H12        81.7702   54.1706   35.1206 dc         1 CLA      0.120400
    137 H11        82.9779   54.3702   33.7867 dc         1 CLA      0.120400
    138 C1         69.7718   61.8757   50.0067 Z1         2 LUT      0.509236
    139 C2         68.3235   61.5930   50.4680 Z2         2 LUT     -0.434695
    140 C3         67.4276   62.8115   50.9181 Z3         2 LUT      0.437453
    141 O3         67.5910   62.9605   52.3352 S1         2 LUT     -0.547129
    142 C4         67.8528   64.0934   50.2962 Z4         2 LUT     -0.468603
    143 C5         68.6158   64.0315   49.0714 Z5         2 LUT      0.279246
    144 C6         69.5768   63.1014   48.9400 Z6         2 LUT     -0.305473
    145 C7         69.9841   62.7329   47.5766 Z7         2 LUT      0.069402
    146 C8         71.1136   63.0269   46.9274 Z8         2 LUT     -0.191631
    147 C9         71.5885   62.6659   45.6552 Z9         2 LUT      0.196698
    148 C10        72.6902   63.2905   45.1404 Y1         2 LUT     -0.208611
    149 C11        73.3433   63.0292   43.8983 Y2         2 LUT      0.030784
    150 C12        74.5741   63.5443   43.5479 Y3         2 LUT     -0.220316
    151 C13        75.3883   63.4476   42.3771 Y4         2 LUT      0.215937
    152 C14        76.6685   63.9489   42.4968 Y5         2 LUT     -0.185793
    153 C15        77.6149   64.1439   41.4366 Y6         2 LUT     -0.057835
    154 C16        70.3244   60.5433   49.5327 Y7         2 LUT     -0.405615
    155 C17        70.5558   62.2593   51.2605 Y7         2 LUT     -0.405615
    156 C18        67.9730   64.8388   47.9815 Y9         2 LUT     -0.369639
    157 C19        70.7826   61.6176   44.9213 W1         2 LUT     -0.333362
    158 C20        74.6900   63.0775   41.1157 W2         2 LUT     -0.323439
    159 C21        88.8993   65.3930   35.0997 Z1         2 LUT      0.406104
    160 C22        89.7701   64.9147   33.8821 Z2         2 LUT     -0.404965
    161 C23        90.1164   65.9289   32.7447 Z3         2 LUT      0.391255
    162 O23        90.5336   64.9953   31.6596 S1         2 LUT     -0.528210
    163 C24        88.8929   66.8105   32.4859 W6         2 LUT     -0.258361
    164 C25        87.8205   66.8831   33.2926 Z5         2 LUT      0.133546
    165 C26        87.5471   65.9944   34.5441 W8         2 LUT     -0.147008
    166 C27        86.6467   66.5530   35.5962 Z7         2 LUT      0.023843
    167 C28        85.4800   66.0223   36.0577 Z8         2 LUT     -0.216987
    168 C29        84.6134   66.5581   37.0852 Z9         2 LUT      0.206524
    169 C30        83.6091   65.7728   37.6925 Y1         2 LUT     -0.215556
    170 C31        82.7772   66.1276   38.8146 Y2         2 LUT      0.025142
    171 C32        81.6506   65.5030   39.2500 Y3         2 LUT     -0.212209
    172 C33        80.7573   65.8377   40.3049 Y4         2 LUT      0.240937
    173 C34        79.5966   65.0852   40.4587 Y5         2 LUT     -0.218862
    174 C35        78.5681   65.0622   41.5155 Y6         2 LUT     -0.023547
    175 C36        89.7766   66.3651   35.9721 Y7         2 LUT     -0.393485
    176 C37        88.5109   64.3025   36.1318 Y7         2 LUT     -0.393485
    177 C38        86.6071   67.6773   32.7753 Y9         2 LUT     -0.387526
    178 C39        84.8322   67.9703   37.4720 W1         2 LUT     -0.322618
    179 C40        81.2227   66.8580   41.3833 W2         2 LUT     -0.358472
    180 H403       80.5974   66.9265   42.3406 R7         2 LUT      0.097720
    181 H402       82.2512   66.6797   41.7771 R7         2 LUT      0.097720
    182 H401       81.1291   67.8649   40.9772 R7         2 LUT      0.097720
    183 H393       83.9832   68.5837   37.9146 R4         2 LUT      0.082505
    184 H392       85.7234   68.1554   38.0130 R4         2 LUT      0.082505
    185 H391       85.0875   68.5765   36.5512 R4         2 LUT      0.082505
    186 H383       86.8180   68.6831   32.4659 R1         2 LUT      0.104030
    187 H382       86.2812   67.1621   31.8550 R1         2 LUT      0.104030
    188 H381       85.6534   67.6334   33.3113 R1         2 LUT      0.104030
    189 H373       89.3788   63.6536   36.4291 T4         2 LUT      0.089537
    190 H372       88.0906   64.5392   37.1262 T4         2 LUT      0.089537
    191 H371       87.7228   63.6187   35.8582 T4         2 LUT      0.089537
    192 H363       90.6338   65.8599   36.4464 T4         2 LUT      0.089537
    193 H362       89.9650   67.2130   35.3233 T4         2 LUT      0.089537
    194 H361       89.2848   66.7976   36.7912 T4         2 LUT      0.089537
    195 H222       90.6992   64.4887   34.2682 U2         2 LUT      0.127376
    196 H221       89.2590   64.1101   33.2904 U2         2 LUT      0.127376
    197 H203       75.4133   62.7096   40.3384 R7         2 LUT      0.087068
    198 H202       73.8726   62.3047   41.2379 R7         2 LUT      0.087068
    199 H201       74.1512   63.8600   40.7035 R7         2 LUT      0.087068
    200 H193       70.4753   60.7816   45.5351 R4         2 LUT      0.089716
    201 H192       69.8607   62.0280   44.5597 R4         2 LUT      0.089716
    202 H191       71.2432   61.2446   43.9953 R4         2 LUT      0.089716
    203 H183       68.2682   65.9401   48.0320 R1         2 LUT      0.094572
    204 H182       68.2012   64.5130   46.9553 R1         2 LUT      0.094572
    205 H181       66.8853   64.8382   48.0462 R1         2 LUT      0.094572
    206 H173       70.3013   63.1825   51.7766 T4         2 LUT      0.093752
    207 H172       70.4017   61.4260   51.9655 T4         2 LUT      0.093752
    208 H171       71.6675   62.2974   51.1110 T4         2 LUT      0.093752
    209 H163       70.5601   59.9030   50.3552 T4         2 LUT      0.093752
    210 H162       69.6880   60.1100   48.8297 T4         2 LUT      0.093752
    211 H161       71.2377   60.6507   48.9269 T4         2 LUT      0.093752
    212 HO3        66.7404   62.8179   52.7912 Q1         2 LUT      0.300121
    213 H8         71.8466   63.6891   47.4487 U7         2 LUT      0.080784
    214 H7         69.3174   62.1152   47.0831 U6         2 LUT      0.042190
    215 H42        66.8988   64.7739   50.2213 U5         2 LUT      0.145166
    216 H41        68.4085   64.7118   51.0475 U5         2 LUT      0.145166
    217 H35        78.7163   65.7131   42.3338 T3         2 LUT      0.077919
    218 H34        79.4688   64.2739   39.7316 T2         2 LUT      0.073626
    219 H32        81.2650   64.6151   38.7246 T1         2 LUT      0.092510
    220 H31        83.0091   66.9483   39.4683 U9         2 LUT      0.070048
    221 H30        83.4208   64.7083   37.4118 U8         2 LUT      0.085442
    222 H3         66.3732   62.5272   50.5529 U3         2 LUT     -0.031596
    223 H28        85.2518   64.9895   35.7655 U7         2 LUT      0.084728
    224 H27        87.0770   67.4815   36.0403 U6         2 LUT      0.087291
    225 H26        86.8734   65.2280   34.0910 Q6         2 LUT      0.075325
    226 H24        89.0396   67.2777   31.4919 Q5         2 LUT      0.094482
    227 H23        90.9899   66.5878   32.9185 U3         2 LUT     -0.024869
    228 H22        67.6875   61.1133   49.6787 U2         2 LUT      0.127376
    229 H21        68.3425   60.8062   51.1994 U2         2 LUT      0.127376
    230 H15        77.4468   63.4630   40.5809 T3         2 LUT      0.093200
    231 H14        76.9841   64.3234   43.4724 T2         2 LUT      0.068865
    232 H12        75.0562   64.0418   44.3784 T1         2 LUT      0.095507
    233 H11        72.9012   62.4172   43.0877 U9         2 LUT      0.068930
    234 H10        73.2126   64.0325   45.8101 U8         2 LUT      0.083911
    235 H1         90.8133   65.4754   30.8936 Q1         2 LUT      0.297311
@<TRIPOS>BOND
    1     6     1 1
    2     7     2 1
    3     8     3 1
    4     9     4 1
    5    11     4 1
    6    12     6 1
    7    13     9 1
    8    16     9 1
    9    25     5 1
   10    25    16 1
   11    26    10 1
   12    26    17 1
   13    27    18 1
   14    28    14 1
   15    28    19 1
   16    29    12 1
   17    30    13 1
   18    31    24 1
   19    32     1 1
   20    32    25 1
   21    33    21 1
   22    33    26 1
   23    34    22 1
   24    34    27 1
   25    35    23 1
   26    35    28 1
   27    36    12 1
   28    36    24 1
   29    37    13 1
   30    37    15 1
   31    38    31 1
   32    39    20 1
   33    39    32 1
   34    40     2 1
   35    40    33 1
   36    41     3 1
   37    41    34 1
   38    42     4 1
   39    42    35 1
   40    43    38 1
   41    44     5 1
   42    44    17 1
   43    44    39 1
   44    45    10 1
   45    45    18 1
   46    45    40 1
   47    46    19 1
   48    46    41 1
   49    47    14 1
   50    47    16 1
   51    47    42 1
   52    48    38 1
   53    49    48 1
   54    50    49 1
   55    51    50 1
   56    52    51 1
   57    53    51 1
   58    54    53 1
   59    55    54 1
   60    56    55 1
   61    57    56 1
   62    58    56 1
   63    59    58 1
   64    60    59 1
   65    61    60 1
   66    62    61 1
   67    63    61 1
   68    64    27 1
   69    64    46 1
   70    65     5 1
   71    65    10 1
   72    65    64 1
   73    65    14 1
   74    66    23 1
   75    67    23 1
   76    68    23 1
   77    69    22 1
   78    70    22 1
   79    71    22 1
   80    72    21 1
   81    73    21 1
   82    74    21 1
   83    75    20 1
   84    76    20 1
   85    77    20 1
   86    78    15 1
   87    79    15 1
   88    80    15 1
   89    81     8 1
   90    82     8 1
   91    83     8 1
   92    84     7 1
   93    85     7 1
   94    86     6 1
   95    87     6 1
   96    88     3 1
   97    89     3 1
   98    90     1 1
   99    91     1 1
  100    92    63 1
  101    93    63 1
  102    94    63 1
  103    95    62 1
  104    96    62 1
  105    97    62 1
  106    98    60 1
  107    99    60 1
  108   100    59 1
  109   101    59 1
  110   102    58 1
  111   103    58 1
  112   104    57 1
  113   105    57 1
  114   106    57 1
  115   107    55 1
  116   108    55 1
  117   109    54 1
  118   110    54 1
  119   111    53 1
  120   112    53 1
  121   113    19 1
  122   114    18 1
  123   115    17 1
  124   116     9 1
  125   117     2 1
  126   118    52 1
  127   119    52 1
  128   120    52 1
  129   121    51 1
  130   122    50 1
  131   123    50 1
  132   124    49 1
  133   125    49 1
  134   126    48 1
  135   127    48 1
  136   128    43 1
  137   129    43 1
  138   130    43 1
  139   131    39 1
  140   132    32 1
  141   133    31 1
  142   134    61 1
  143   135    56 1
  144   136    24 1
  145   137    24 1
  146   139   138 1
  147   140   139 1
  148   141   140 1
  149   142   140 1
  150   143   142 1
  151   144   138 1
  152   144   143 1
  153   145   144 1
  154   146   145 1
  155   147   146 1
  156   148   147 1
  157   149   148 1
  158   150   149 1
  159   151   150 1
  160   152   151 1
  161   153   152 1
  162   154   138 1
  163   155   138 1
  164   156   143 1
  165   157   147 1
  166   158   151 1
  167   160   159 1
  168   161   160 1
  169   162   161 1
  170   163   161 1
  171   164   163 1
  172   165   159 1
  173   165   164 1
  174   166   165 1
  175   167   166 1
  176   168   167 1
  177   169   168 1
  178   170   169 1
  179   171   170 1
  180   172   171 1
  181   173   172 1
  182   174   153 1
  183   174   173 1
  184   175   159 1
  185   176   159 1
  186   177   164 1
  187   178   168 1
  188   179   172 1
  189   180   179 1
  190   181   179 1
  191   182   179 1
  192   183   178 1
  193   184   178 1
  194   185   178 1
  195   186   177 1
  196   187   177 1
  197   188   177 1
  198   189   176 1
  199   190   176 1
  200   191   176 1
  201   192   175 1
  202   193   175 1
  203   194   175 1
  204   195   160 1
  205   196   160 1
  206   197   158 1
  207   198   158 1
  208   199   158 1
  209   200   157 1
  210   201   157 1
  211   202   157 1
  212   203   156 1
  213   204   156 1
  214   205   156 1
  215   206   155 1
  216   207   155 1
  217   208   155 1
  218   209   154 1
  219   210   154 1
  220   211   154 1
  221   212   141 1
  222   213   146 1
  223   214   145 1
  224   215   142 1
  225   216   142 1
  226   217   174 1
  227   218   173 1
  228   219   171 1
  229   220   170 1
  230   221   169 1
  231   222   140 1
  232   223   167 1
  233   224   166 1
  234   225   165 1
  235   226   163 1
  236   227   161 1
  237   228   139 1
  238   229   139 1
  239   230   153 1
  240   231   152 1
  241   232   150 1
  242   233   149 1
  243   234   148 1
  244   235   162 1
  245   65    153 1
  246   65    174 1
@<TRIPOS>SUBSTRUCTURE
      1 CLA               1 ****               0 ****  **** 
      2 LUT             138 ****               0 ****  **** 
