@<TRIPOS>MOLECULE
Cpptraj generated mol2 file.
  235   246     2     0     0
SMALL
USER_CHARGES


@<TRIPOS>ATOM
      1 CAA        79.2484   59.5406   33.8940 a2         1 CLA     -0.055900
      2 CAB        79.4454   62.4488   43.0193 c8         1 CLA     -0.148500
      3 CAC        72.4490   58.5826   42.1956 a2         1 CLA     -0.012600
      4 CAD        75.2342   56.4085   35.0732 ck         1 CLA      0.398800
      5 NA         78.3241   59.5267   37.2111 ns         1 CLA     -0.225500
      6 CBA        80.5134   59.4753   32.9676 a2         1 CLA     -0.135000
      7 CBB        80.5384   62.3265   43.7909 c0         1 CLA     -0.395200
      8 CBC        72.6058   57.1030   42.7723 a3         1 CLA     -0.037700
      9 CBD        76.6631   57.1182   34.6196 a1         1 CLA     -0.053900
     10 NB         78.2164   60.9161   39.8816 nm         1 CLA     -0.295700
     11 OBD        74.5666   55.5977   34.4157 o2         1 CLA     -0.494600
     12 CGA        80.9730   58.1013   32.4788 c4         1 CLA      0.827000
     13 CGD        77.6446   56.0402   34.2078 c4         1 CLA      0.655300
     14 ND         75.5766   58.6079   37.8024 nm         1 CLA     -0.291600
     15 CED        78.3624   53.7379   34.6004 a3         1 CLA      0.005400
     16 CHA        77.0277   58.0165   35.8954 cs         1 CLA     -0.123800
     17 CHB        80.0146   60.9851   38.2436 aa         1 CLA     -0.291900
     18 CHC        76.9267   60.9252   41.9343 aa         1 CLA     -0.090400
     19 CHD        73.6529   58.4109   39.3838 aa         1 CLA     -0.052000
     20 CMA        81.6849   58.8010   36.6431 a3         1 CLA     -0.230700
     21 CMB        81.4014   62.4806   40.4609 a3         1 CLA     -0.180800
     22 CMC        74.5558   60.5016   43.9022 a3         1 CLA     -0.134000
     23 CMD        72.4975   56.4150   37.2447 a3         1 CLA     -0.141100
     24 C1         81.8894   56.0948   33.2194 a2         1 CLA      0.023000
     25 C1A        78.1778   58.7271   36.1423 ac         1 CLA     -0.015100
     26 C1B        79.4344   61.3160   39.4897 cr         1 CLA      0.054700
     27 C1C        75.7663   60.2504   41.6310 cn         1 CLA     -0.005600
     28 C1D        74.2777   58.1210   38.1948 ap         1 CLA     -0.047300
     29 O1A        80.8215   57.5780   31.3648 o2         1 CLA     -0.610800
     30 O1D        78.3389   56.1645   33.2521 o2         1 CLA     -0.558200
     31 C2         82.4470   55.6752   34.5966 c8         1 CLA     -0.325100
     32 C2A        79.4617   58.8357   35.2957 a1         1 CLA      0.098600
     33 C2B        80.0828   61.9452   40.5975 cb         1 CLA      0.088500
     34 C2C        74.6035   59.9747   42.5101 cb         1 CLA      0.053700
     35 C2D        73.8318   57.1344   37.2239 cb         1 CLA      0.058900
     36 O2A        81.5632   57.4819   33.4784 o1         1 CLA     -0.437200
     37 O2D        77.5418   54.8511   34.9259 o1         1 CLA     -0.357600
     38 C3         83.4869   54.9066   34.8770 c5         1 CLA      0.031200
     39 C3A        80.3977   59.6296   36.2039 a1         1 CLA      0.166800
     40 C3B        79.2741   61.9319   41.6598 cb         1 CLA      0.035000
     41 C3C        73.7869   59.1077   41.7863 cb         1 CLA     -0.089900
     42 C3D        74.8578   57.0407   36.2827 cb         1 CLA     -0.035900
     43 C4         83.4010   53.4808   35.1981 a3         1 CLA     -0.053300
     44 C4A        79.5230   60.1644   37.2512 ac         1 CLA      0.001800
     45 C4B        78.0784   61.2510   41.1678 cn         1 CLA     -0.020900
     46 C4C        74.2959   59.0668   40.4452 cr         1 CLA     -0.044400
     47 C4D        75.9199   57.9784   36.6507 c6         1 CLA     -0.046000
     48 C5         84.8912   55.4563   34.8101 a2         1 CLA     -0.070400
     49 C6         85.1691   56.7139   35.6541 a2         1 CLA      0.043900
     50 C7         85.1624   56.3316   37.2057 a2         1 CLA     -0.150000
     51 C8         85.2780   57.4413   38.2334 a1         1 CLA      0.064200
     52 C9         86.5961   58.1364   38.1557 a3         1 CLA     -0.259300
     53 C10        84.9628   56.9872   39.7139 a2         1 CLA     -0.071900
     54 C11        84.7319   58.2443   40.6729 a2         1 CLA      0.014500
     55 C12        84.3698   57.7145   42.0746 a2         1 CLA     -0.112100
     56 C13        83.9523   58.7366   43.1673 a1         1 CLA      0.089200
     57 C14        84.9708   59.7732   43.5551 a3         1 CLA     -0.239100
     58 C15        83.6431   58.0578   44.5579 a2         1 CLA     -0.102200
     59 C16        82.5008   57.0715   44.6207 a2         1 CLA      0.023900
     60 C17        81.1241   57.6058   44.1911 a2         1 CLA     -0.105700
     61 C18        80.0005   57.1297   45.1479 a1         1 CLA      0.206800
     62 C19        78.6430   57.8345   44.7340 a3         1 CLA     -0.280100
     63 C20        79.8653   55.5519   45.1366 a3         1 CLA     -0.280100
     64 NC         75.5291   59.7305   40.3847 nx         1 CLA     -0.309200
     65 MG         76.7920   59.8314   38.7208 mg         1 CLA      0.895000
     66 HMD3       72.2507   55.8790   38.1716 dc         1 CLA      0.064300
     67 HMD2       71.6970   57.0913   37.0056 dc         1 CLA      0.064300
     68 HMD1       72.4315   55.6955   36.4064 dc         1 CLA      0.064300
     69 HMC3       73.7024   61.1994   44.1090 dc         1 CLA      0.052100
     70 HMC2       74.3727   59.7126   44.6552 dc         1 CLA      0.052100
     71 HMC1       75.4255   61.0045   44.3705 dc         1 CLA      0.052100
     72 HMB3       82.1407   61.7052   40.5715 dc         1 CLA      0.063600
     73 HMB2       81.5243   63.0271   39.5503 dc         1 CLA      0.063600
     74 HMB1       81.5971   63.2247   41.1900 dc         1 CLA      0.063600
     75 HMA3       82.2430   58.4612   35.7348 dc         1 CLA      0.058300
     76 HMA2       82.3642   59.4969   37.1535 dc         1 CLA      0.058300
     77 HMA1       81.5461   57.9906   37.3704 dc         1 CLA      0.058300
     78 HED3       79.2863   53.9901   34.1031 dc         1 CLA      0.079300
     79 HED2       78.5986   53.2694   35.5509 dc         1 CLA      0.079300
     80 HED1       77.7650   53.1766   33.8808 dc         1 CLA      0.079300
     81 HBC3       71.6713   56.6087   43.0306 dc         1 CLA      0.016300
     82 HBC2       73.0385   56.4807   41.9727 dc         1 CLA      0.016300
     83 HBC1       73.2663   57.1647   43.7082 dc         1 CLA      0.016300
     84 HBB2       80.5238   62.6403   44.8693 da         1 CLA      0.183000
     85 HBB1       81.4151   61.8028   43.3926 da         1 CLA      0.183000
     86 HBA2       80.2516   60.0825   32.0841 dc         1 CLA      0.029400
     87 HBA1       81.3080   59.9536   33.5184 dc         1 CLA      0.029400
     88 HAC2       71.8939   59.2682   42.8654 dc         1 CLA      0.029300
     89 HAC1       71.7483   58.5051   41.3663 dc         1 CLA      0.029300
     90 HAA2       78.3535   59.2195   33.3991 dc         1 CLA      0.028700
     91 HAA1       78.9170   60.6211   34.1629 dc         1 CLA      0.028700
     92 H203       80.7355   54.9877   45.4734 dc         1 CLA      0.065600
     93 H202       78.8845   55.3210   45.6635 dc         1 CLA      0.065600
     94 H201       79.5764   55.2719   44.1540 dc         1 CLA      0.065600
     95 H193       77.9798   57.0647   44.3568 dc         1 CLA      0.065600
     96 H192       78.2747   58.3507   45.6178 dc         1 CLA      0.065600
     97 H191       78.7005   58.6849   43.9776 dc         1 CLA      0.065600
     98 H172       81.1125   58.6878   44.2026 dc         1 CLA      0.027600
     99 H171       81.0116   57.2138   43.1477 dc         1 CLA      0.027600
    100 H162       82.7299   56.2483   43.9751 dc         1 CLA      0.002900
    101 H161       82.3811   56.6240   45.6276 dc         1 CLA      0.002900
    102 H152       84.5240   57.6551   45.0678 dc         1 CLA      0.029100
    103 H151       83.3104   58.8688   45.2023 dc         1 CLA      0.029100
    104 H143       85.2956   60.2053   42.6439 dc         1 CLA      0.063600
    105 H142       84.4878   60.4638   44.2884 dc         1 CLA      0.063600
    106 H141       85.7548   59.3132   44.0027 dc         1 CLA      0.063600
    107 H122       83.4964   57.1114   41.8517 dc         1 CLA      0.032500
    108 H121       85.2012   57.1516   42.5747 dc         1 CLA      0.032500
    109 H112       85.5215   58.9953   40.7417 dc         1 CLA      0.006600
    110 H111       83.8220   58.7820   40.3091 dc         1 CLA      0.006600
    111 H102       83.9863   56.4348   39.7607 dc         1 CLA      0.024100
    112 H101       85.8098   56.3807   40.0334 dc         1 CLA      0.024100
    113 HHD        72.6999   57.9902   39.6188 da         1 CLA      0.174300
    114 HHC        77.0088   61.2366   43.0469 da         1 CLA      0.136800
    115 HHB        81.0529   61.3899   38.1558 da         1 CLA      0.138300
    116 HBD        76.3394   57.6980   33.7252 dc         1 CLA      0.107700
    117 HAB        78.6279   62.9449   43.5564 da         1 CLA      0.155200
    118 H93        86.6223   58.9756   38.7715 dc         1 CLA      0.069500
    119 H92        87.4179   57.5071   38.4796 dc         1 CLA      0.069500
    120 H91        86.7705   58.3959   37.1589 dc         1 CLA      0.069500
    121 H8         84.5301   58.2650   37.9281 dc         1 CLA      0.029300
    122 H72        84.1731   55.7967   37.4427 dc         1 CLA      0.044400
    123 H71        85.9632   55.5657   37.3925 dc         1 CLA      0.044400
    124 H62        86.1526   57.0046   35.3207 dc         1 CLA      0.015600
    125 H61        84.3675   57.4462   35.5350 dc         1 CLA      0.015600
    126 H52        85.6754   54.7335   35.0842 dc         1 CLA      0.033200
    127 H51        85.0809   55.7024   33.7799 dc         1 CLA      0.033200
    128 H43        82.4527   53.0454   35.0504 dc         1 CLA      0.037000
    129 H42        84.0048   52.8868   34.5067 dc         1 CLA      0.037000
    130 H41        83.8355   53.4944   36.1907 dc         1 CLA      0.037000
    131 H3A        80.6856   60.5558   35.6128 dc         1 CLA      0.041100
    132 H2A        79.8247   57.7853   35.2741 dc         1 CLA      0.083100
    133 H2         82.1249   56.3660   35.3871 da         1 CLA      0.180900
    134 H18        80.1876   57.4867   46.1412 dc         1 CLA     -0.003900
    135 H13        83.1606   59.2987   42.8239 dc         1 CLA      0.019700
    136 H12        81.0066   55.4984   32.9592 dc         1 CLA      0.120400
    137 H11        82.5795   55.9639   32.3741 dc         1 CLA      0.120400
    138 C1         68.8047   61.9654   50.0737 Z1         2 LUT      0.509236
    139 C2         67.3140   61.8186   50.6763 Z2         2 LUT     -0.434695
    140 C3         66.5163   63.0985   50.9520 Z3         2 LUT      0.437453
    141 O3         66.2911   63.2057   52.3634 S1         2 LUT     -0.547129
    142 C4         67.0687   64.2795   50.1604 Z4         2 LUT     -0.468603
    143 C5         67.8704   63.9587   48.9064 Z5         2 LUT      0.279246
    144 C6         68.7591   62.9258   48.9035 Z6         2 LUT     -0.305473
    145 C7         69.1302   62.3623   47.5913 Z7         2 LUT      0.069402
    146 C8         70.1154   62.9404   46.8352 Z8         2 LUT     -0.191631
    147 C9         70.5927   62.6522   45.3800 Z9         2 LUT      0.196698
    148 C10        71.5411   63.4429   44.8217 Y1         2 LUT     -0.208611
    149 C11        72.1967   63.2008   43.5734 Y2         2 LUT      0.030784
    150 C12        73.4284   63.8001   43.2691 Y3         2 LUT     -0.220316
    151 C13        74.3879   63.7005   42.1880 Y4         2 LUT      0.215937
    152 C14        75.5632   64.3939   42.2618 Y5         2 LUT     -0.185793
    153 C15        76.6527   64.4324   41.2773 Y6         2 LUT     -0.057835
    154 C16        69.2762   60.4982   49.7776 Y7         2 LUT     -0.405615
    155 C17        69.7159   62.5230   51.2239 Y7         2 LUT     -0.405615
    156 C18        67.1289   64.5636   47.6846 Y9         2 LUT     -0.369639
    157 C19        70.0059   61.3559   44.7762 W1         2 LUT     -0.333362
    158 C20        73.9551   62.9570   40.9241 W2         2 LUT     -0.323439
    159 C21        88.1320   66.1131   35.0079 Z1         2 LUT      0.406104
    160 C22        88.6599   65.5675   33.6150 Z2         2 LUT     -0.404965
    161 C23        88.3853   66.4838   32.4112 Z3         2 LUT      0.391255
    162 O23        88.8113   65.7236   31.2731 S1         2 LUT     -0.528210
    163 C24        86.9545   66.9429   32.3615 W6         2 LUT     -0.258361
    164 C25        86.2115   67.0694   33.3911 Z5         2 LUT      0.133546
    165 C26        86.5558   66.3066   34.7033 W8         2 LUT     -0.147008
    166 C27        85.9978   67.0530   35.9691 Z7         2 LUT      0.023843
    167 C28        84.7982   66.6882   36.5560 Z8         2 LUT     -0.216987
    168 C29        83.9389   67.2921   37.5720 Z9         2 LUT      0.206524
    169 C30        82.6415   66.7498   37.7907 Y1         2 LUT     -0.215556
    170 C31        81.7665   66.8888   38.9328 Y2         2 LUT      0.025142
    171 C32        80.7113   65.9767   39.2247 Y3         2 LUT     -0.212209
    172 C33        79.8398   66.2010   40.3875 Y4         2 LUT      0.240937
    173 C34        78.6549   65.5695   40.4199 Y5         2 LUT     -0.218862
    174 C35        77.6597   65.3299   41.4122 Y6         2 LUT     -0.023547
    175 C36        88.9938   67.4612   35.2301 Y7         2 LUT     -0.393485
    176 C37        88.2749   65.0969   36.1149 Y7         2 LUT     -0.393485
    177 C38        84.8365   67.7895   33.2715 Y9         2 LUT     -0.387526
    178 C39        84.4693   68.4696   38.4707 W1         2 LUT     -0.322618
    179 C40        80.4754   67.0126   41.4597 W2         2 LUT     -0.358472
    180 H403       79.9641   66.8722   42.4374 R7         2 LUT      0.097720
    181 H402       81.4455   66.6112   41.8569 R7         2 LUT      0.097720
    182 H401       80.4917   68.0608   41.2091 R7         2 LUT      0.097720
    183 H393       83.7196   69.1197   38.9400 R4         2 LUT      0.082505
    184 H392       85.1684   68.0998   39.2358 R4         2 LUT      0.082505
    185 H391       84.9557   69.1977   37.8658 R4         2 LUT      0.082505
    186 H383       84.0999   67.0400   33.5239 R1         2 LUT      0.104030
    187 H382       84.7058   68.6712   34.0153 R1         2 LUT      0.104030
    188 H381       84.6641   68.3384   32.3454 R1         2 LUT      0.104030
    189 H373       87.7482   64.1997   35.8772 T4         2 LUT      0.089537
    190 H372       89.3024   64.8233   36.2731 T4         2 LUT      0.089537
    191 H371       87.9076   65.4298   37.0793 T4         2 LUT      0.089537
    192 H363       88.7174   68.2355   34.5012 T4         2 LUT      0.089537
    193 H362       88.7676   67.8924   36.1489 T4         2 LUT      0.089537
    194 H361       90.1514   67.3950   35.0989 T4         2 LUT      0.089537
    195 H222       89.7340   65.1999   33.5976 U2         2 LUT      0.127376
    196 H221       88.1964   64.6344   33.3732 U2         2 LUT      0.127376
    197 H203       73.4330   63.6444   40.2282 R7         2 LUT      0.087068
    198 H202       74.7284   62.3981   40.4018 R7         2 LUT      0.087068
    199 H201       73.1697   62.2046   41.1380 R7         2 LUT      0.087068
    200 H193       69.9742   60.6005   45.5507 R4         2 LUT      0.089716
    201 H192       69.0247   61.5166   44.4370 R4         2 LUT      0.089716
    202 H191       70.4859   60.9579   43.9628 R4         2 LUT      0.089716
    203 H183       67.5561   64.1842   46.7390 R1         2 LUT      0.094572
    204 H182       66.0725   64.4636   47.5258 R1         2 LUT      0.094572
    205 H181       67.4254   65.6124   47.7520 R1         2 LUT      0.094572
    206 H173       70.7962   62.4428   50.9173 T4         2 LUT      0.093752
    207 H172       69.6964   63.5163   51.3830 T4         2 LUT      0.093752
    208 H171       69.6014   61.9042   52.1257 T4         2 LUT      0.093752
    209 H163       68.6201   59.9242   49.1073 T4         2 LUT      0.093752
    210 H162       70.3241   60.4019   49.5151 T4         2 LUT      0.093752
    211 H161       69.1556   60.0575   50.7773 T4         2 LUT      0.093752
    212 HO3        67.1129   63.3885   52.8917 Q1         2 LUT      0.300121
    213 H8         70.7183   63.7723   47.3165 U7         2 LUT      0.080784
    214 H7         68.5522   61.5517   47.1121 U6         2 LUT      0.042190
    215 H42        66.2704   65.0333   49.9649 U5         2 LUT      0.145166
    216 H41        67.6870   64.8994   50.8520 U5         2 LUT      0.145166
    217 H35        77.5985   65.9318   42.3163 T3         2 LUT      0.077919
    218 H34        78.5230   64.8121   39.7009 T2         2 LUT      0.073626
    219 H32        80.4583   65.1311   38.5461 T1         2 LUT      0.092510
    220 H31        81.9856   67.6958   39.6267 U9         2 LUT      0.070048
    221 H30        82.3742   65.9476   37.1216 U8         2 LUT      0.085442
    222 H3         65.5423   62.8137   50.5589 U3         2 LUT     -0.031596
    223 H28        84.2936   65.7901   36.0718 U7         2 LUT      0.084728
    224 H27        86.5769   67.9175   36.3964 U6         2 LUT      0.087291
    225 H26        85.9926   65.3395   34.6197 Q6         2 LUT      0.075325
    226 H24        86.7334   67.4146   31.4561 Q5         2 LUT      0.094482
    227 H23        88.9455   67.3867   32.5008 U3         2 LUT     -0.024869
    228 H22        66.7215   61.4636   49.8083 U2         2 LUT      0.127376
    229 H21        67.2281   61.0203   51.4884 U2         2 LUT      0.127376
    230 H15        76.5374   63.8960   40.3628 T3         2 LUT      0.093200
    231 H14        75.8749   64.9126   43.1498 T2         2 LUT      0.068865
    232 H12        73.7934   64.4264   44.0659 T1         2 LUT      0.095507
    233 H11        71.8364   62.4112   42.9101 U9         2 LUT      0.068930
    234 H10        71.8184   64.3360   45.3836 U8         2 LUT      0.083911
    235 H1         88.6224   66.1746   30.4358 Q1         2 LUT      0.297311
@<TRIPOS>BOND
    1     6     1 1
    2     7     2 1
    3     8     3 1
    4     9     4 1
    5    11     4 1
    6    12     6 1
    7    13     9 1
    8    16     9 1
    9    25     5 1
   10    25    16 1
   11    26    10 1
   12    26    17 1
   13    27    18 1
   14    28    14 1
   15    28    19 1
   16    29    12 1
   17    30    13 1
   18    31    24 1
   19    32     1 1
   20    32    25 1
   21    33    21 1
   22    33    26 1
   23    34    22 1
   24    34    27 1
   25    35    23 1
   26    35    28 1
   27    36    12 1
   28    36    24 1
   29    37    13 1
   30    37    15 1
   31    38    31 1
   32    39    20 1
   33    39    32 1
   34    40     2 1
   35    40    33 1
   36    41     3 1
   37    41    34 1
   38    42     4 1
   39    42    35 1
   40    43    38 1
   41    44     5 1
   42    44    17 1
   43    44    39 1
   44    45    10 1
   45    45    18 1
   46    45    40 1
   47    46    19 1
   48    46    41 1
   49    47    14 1
   50    47    16 1
   51    47    42 1
   52    48    38 1
   53    49    48 1
   54    50    49 1
   55    51    50 1
   56    52    51 1
   57    53    51 1
   58    54    53 1
   59    55    54 1
   60    56    55 1
   61    57    56 1
   62    58    56 1
   63    59    58 1
   64    60    59 1
   65    61    60 1
   66    62    61 1
   67    63    61 1
   68    64    27 1
   69    64    46 1
   70    65     5 1
   71    65    10 1
   72    65    64 1
   73    65    14 1
   74    66    23 1
   75    67    23 1
   76    68    23 1
   77    69    22 1
   78    70    22 1
   79    71    22 1
   80    72    21 1
   81    73    21 1
   82    74    21 1
   83    75    20 1
   84    76    20 1
   85    77    20 1
   86    78    15 1
   87    79    15 1
   88    80    15 1
   89    81     8 1
   90    82     8 1
   91    83     8 1
   92    84     7 1
   93    85     7 1
   94    86     6 1
   95    87     6 1
   96    88     3 1
   97    89     3 1
   98    90     1 1
   99    91     1 1
  100    92    63 1
  101    93    63 1
  102    94    63 1
  103    95    62 1
  104    96    62 1
  105    97    62 1
  106    98    60 1
  107    99    60 1
  108   100    59 1
  109   101    59 1
  110   102    58 1
  111   103    58 1
  112   104    57 1
  113   105    57 1
  114   106    57 1
  115   107    55 1
  116   108    55 1
  117   109    54 1
  118   110    54 1
  119   111    53 1
  120   112    53 1
  121   113    19 1
  122   114    18 1
  123   115    17 1
  124   116     9 1
  125   117     2 1
  126   118    52 1
  127   119    52 1
  128   120    52 1
  129   121    51 1
  130   122    50 1
  131   123    50 1
  132   124    49 1
  133   125    49 1
  134   126    48 1
  135   127    48 1
  136   128    43 1
  137   129    43 1
  138   130    43 1
  139   131    39 1
  140   132    32 1
  141   133    31 1
  142   134    61 1
  143   135    56 1
  144   136    24 1
  145   137    24 1
  146   139   138 1
  147   140   139 1
  148   141   140 1
  149   142   140 1
  150   143   142 1
  151   144   138 1
  152   144   143 1
  153   145   144 1
  154   146   145 1
  155   147   146 1
  156   148   147 1
  157   149   148 1
  158   150   149 1
  159   151   150 1
  160   152   151 1
  161   153   152 1
  162   154   138 1
  163   155   138 1
  164   156   143 1
  165   157   147 1
  166   158   151 1
  167   160   159 1
  168   161   160 1
  169   162   161 1
  170   163   161 1
  171   164   163 1
  172   165   159 1
  173   165   164 1
  174   166   165 1
  175   167   166 1
  176   168   167 1
  177   169   168 1
  178   170   169 1
  179   171   170 1
  180   172   171 1
  181   173   172 1
  182   174   153 1
  183   174   173 1
  184   175   159 1
  185   176   159 1
  186   177   164 1
  187   178   168 1
  188   179   172 1
  189   180   179 1
  190   181   179 1
  191   182   179 1
  192   183   178 1
  193   184   178 1
  194   185   178 1
  195   186   177 1
  196   187   177 1
  197   188   177 1
  198   189   176 1
  199   190   176 1
  200   191   176 1
  201   192   175 1
  202   193   175 1
  203   194   175 1
  204   195   160 1
  205   196   160 1
  206   197   158 1
  207   198   158 1
  208   199   158 1
  209   200   157 1
  210   201   157 1
  211   202   157 1
  212   203   156 1
  213   204   156 1
  214   205   156 1
  215   206   155 1
  216   207   155 1
  217   208   155 1
  218   209   154 1
  219   210   154 1
  220   211   154 1
  221   212   141 1
  222   213   146 1
  223   214   145 1
  224   215   142 1
  225   216   142 1
  226   217   174 1
  227   218   173 1
  228   219   171 1
  229   220   170 1
  230   221   169 1
  231   222   140 1
  232   223   167 1
  233   224   166 1
  234   225   165 1
  235   226   163 1
  236   227   161 1
  237   228   139 1
  238   229   139 1
  239   230   153 1
  240   231   152 1
  241   232   150 1
  242   233   149 1
  243   234   148 1
  244   235   162 1
  245   65    153 1
  246   65    174 1
@<TRIPOS>SUBSTRUCTURE
      1 CLA               1 ****               0 ****  **** 
      2 LUT             138 ****               0 ****  **** 
