@<TRIPOS>MOLECULE
Cpptraj generated mol2 file.
  235   246     2     0     0
SMALL
USER_CHARGES


@<TRIPOS>ATOM
      1 CAA        77.1582   57.9544   34.9630 a2         1 CLA     -0.055900
      2 CAB        77.6579   62.4098   43.4387 c8         1 CLA     -0.148500
      3 CAC        70.6735   58.6121   43.2660 a2         1 CLA     -0.012600
      4 CAD        73.2662   55.2276   36.4274 ck         1 CLA      0.398800
      5 NA         76.5671   58.4584   38.1702 ns         1 CLA     -0.225500
      6 CBA        78.2594   58.2283   33.9075 a2         1 CLA     -0.135000
      7 CBB        78.8151   62.4242   44.1422 c0         1 CLA     -0.395200
      8 CBC        70.9739   57.1658   43.6162 a3         1 CLA     -0.037700
      9 CBD        74.8202   55.4903   36.2511 a1         1 CLA     -0.053900
     10 NB         76.4439   60.2811   40.5395 nm         1 CLA     -0.295700
     11 OBD        72.5994   54.4613   35.7312 o2         1 CLA     -0.494600
     12 CGA        79.0717   57.0470   33.3952 c4         1 CLA      0.827000
     13 CGD        75.6728   54.2864   36.5644 c4         1 CLA      0.655300
     14 ND         73.6150   57.7278   38.8621 nm         1 CLA     -0.291600
     15 CED        76.2453   52.3820   37.7890 a3         1 CLA      0.005400
     16 CHA        75.1188   56.6908   37.2455 cs         1 CLA     -0.123800
     17 CHB        78.3850   59.9075   39.0314 aa         1 CLA     -0.291900
     18 CHC        75.1766   60.8455   42.5740 aa         1 CLA     -0.090400
     19 CHD        71.7806   58.0395   40.3962 aa         1 CLA     -0.052000
     20 CMA        79.7404   57.2600   37.7826 a3         1 CLA     -0.230700
     21 CMB        79.7726   61.9016   40.9016 a3         1 CLA     -0.180800
     22 CMC        73.0747   60.4700   44.6666 a3         1 CLA     -0.134000
     23 CMD        70.4207   56.0301   38.1990 a3         1 CLA     -0.141100
     24 C1         80.3623   55.1416   34.0993 a2         1 CLA      0.023000
     25 C1A        76.3372   57.3877   37.3594 ac         1 CLA     -0.015100
     26 C1B        77.7600   60.5035   40.1442 cr         1 CLA      0.054700
     27 C1C        73.9691   60.1751   42.3231 cn         1 CLA     -0.005600
     28 C1D        72.3211   57.4291   39.2459 ap         1 CLA     -0.047300
     29 O1A        79.5840   57.0100   32.2828 o2         1 CLA     -0.610800
     30 O1D        76.6475   54.0947   35.8137 o2         1 CLA     -0.558200
     31 C2         80.4988   54.1999   35.2931 c8         1 CLA     -0.325100
     32 C2A        77.5215   57.3520   36.3697 a1         1 CLA      0.098600
     33 C2B        78.3941   61.4034   41.1113 cb         1 CLA      0.088500
     34 C2C        72.9150   59.9314   43.2878 cb         1 CLA      0.053700
     35 C2D        71.7844   56.5908   38.2348 cb         1 CLA      0.058900
     36 O2A        79.3485   56.1501   34.3838 o1         1 CLA     -0.437200
     37 O2D        75.2827   53.5194   37.6551 o1         1 CLA     -0.357600
     38 C3         81.5885   53.8214   35.9671 c5         1 CLA      0.031200
     39 C3A        78.6686   58.1989   37.1166 a1         1 CLA      0.166800
     40 C3B        77.4788   61.6473   42.1577 cb         1 CLA      0.035000
     41 C3C        71.8956   59.2120   42.6140 cb         1 CLA     -0.089900
     42 C3D        72.8225   56.1248   37.4847 cb         1 CLA     -0.035900
     43 C4         82.2623   52.5354   35.5506 a3         1 CLA     -0.053300
     44 C4A        77.7963   58.9265   38.1404 ac         1 CLA      0.001800
     45 C4B        76.2839   60.9410   41.7027 cn         1 CLA     -0.020900
     46 C4C        72.4173   58.8860   41.2740 cr         1 CLA     -0.044400
     47 C4D        73.9730   56.9032   37.9710 c6         1 CLA     -0.046000
     48 C5         82.0432   54.3882   37.3144 a2         1 CLA     -0.070400
     49 C6         83.1880   55.4135   37.1633 a2         1 CLA      0.043900
     50 C7         83.4631   55.9673   38.6270 a2         1 CLA     -0.150000
     51 C8         84.2091   57.2700   38.7140 a1         1 CLA      0.064200
     52 C9         85.6116   57.1459   38.0522 a3         1 CLA     -0.259300
     53 C10        84.3336   57.6562   40.2602 a2         1 CLA     -0.071900
     54 C11        82.9437   57.9493   40.8857 a2         1 CLA      0.014500
     55 C12        82.9997   58.8061   42.1282 a2         1 CLA     -0.112100
     56 C13        83.4104   58.0113   43.4781 a1         1 CLA      0.089200
     57 C14        82.3794   57.0313   44.0349 a3         1 CLA     -0.239100
     58 C15        83.7327   59.1402   44.5287 a2         1 CLA     -0.102200
     59 C16        82.6843   60.0647   45.2047 a2         1 CLA      0.023900
     60 C17        83.2955   61.0587   46.1714 a2         1 CLA     -0.105700
     61 C18        82.3663   62.0835   46.8669 a1         1 CLA      0.206800
     62 C19        81.4461   61.3047   47.8649 a3         1 CLA     -0.280100
     63 C20        83.0263   63.3011   47.4676 a3         1 CLA     -0.280100
     64 NC         73.6761   59.4460   41.1666 nx         1 CLA     -0.309200
     65 MG         75.0386   59.1273   39.5192 mg         1 CLA      0.895000
     66 HMD3       69.7376   56.8220   38.0771 dc         1 CLA      0.064300
     67 HMD2       70.3062   55.2941   37.3663 dc         1 CLA      0.064300
     68 HMD1       70.2486   55.4236   39.1099 dc         1 CLA      0.064300
     69 HMC3       72.1641   60.4953   45.1936 dc         1 CLA      0.052100
     70 HMC2       73.7048   59.8741   45.2895 dc         1 CLA      0.052100
     71 HMC1       73.4423   61.4734   44.7808 dc         1 CLA      0.052100
     72 HMB3       80.3325   61.0311   41.1657 dc         1 CLA      0.063600
     73 HMB2       79.9374   62.2089   39.8699 dc         1 CLA      0.063600
     74 HMB1       80.0063   62.6271   41.5905 dc         1 CLA      0.063600
     75 HMA3       80.3060   56.9047   36.9547 dc         1 CLA      0.058300
     76 HMA2       80.4114   57.8365   38.4515 dc         1 CLA      0.058300
     77 HMA1       79.3140   56.4286   38.3938 dc         1 CLA      0.058300
     78 HED3       77.2646   52.7563   37.9318 dc         1 CLA      0.079300
     79 HED2       76.0219   51.7210   38.6384 dc         1 CLA      0.079300
     80 HED1       76.2298   51.7085   36.8964 dc         1 CLA      0.079300
     81 HBC3       70.2163   56.6344   44.1442 dc         1 CLA      0.016300
     82 HBC2       71.4165   56.5614   42.8124 dc         1 CLA      0.016300
     83 HBC1       71.7543   57.3822   44.3334 dc         1 CLA      0.016300
     84 HBB2       78.8106   62.9584   45.1445 da         1 CLA      0.183000
     85 HBB1       79.7785   61.9594   43.8280 da         1 CLA      0.183000
     86 HBA2       77.7969   58.7146   33.0419 dc         1 CLA      0.029400
     87 HBA1       79.0824   58.8780   34.1755 dc         1 CLA      0.029400
     88 HAC2       70.4694   59.1759   44.1769 dc         1 CLA      0.029300
     89 HAC1       69.8229   58.5591   42.5445 dc         1 CLA      0.029300
     90 HAA2       76.3326   57.5060   34.3345 dc         1 CLA      0.028700
     91 HAA1       76.7134   58.9510   35.1781 dc         1 CLA      0.028700
     92 H203       82.3198   63.9588   47.9392 dc         1 CLA      0.065600
     93 H202       83.7763   62.9641   48.2459 dc         1 CLA      0.065600
     94 H201       83.4995   63.9090   46.6648 dc         1 CLA      0.065600
     95 H193       80.8944   61.8979   48.5764 dc         1 CLA      0.065600
     96 H192       80.6331   60.7581   47.2473 dc         1 CLA      0.065600
     97 H191       81.9352   60.5002   48.3651 dc         1 CLA      0.065600
     98 H172       83.8091   60.5232   46.9208 dc         1 CLA      0.027600
     99 H171       83.9588   61.6562   45.6979 dc         1 CLA      0.027600
    100 H162       82.1511   60.6654   44.4565 dc         1 CLA      0.002900
    101 H161       81.9406   59.4236   45.7502 dc         1 CLA      0.002900
    102 H152       84.1243   58.5540   45.3547 dc         1 CLA      0.029100
    103 H151       84.5166   59.6799   44.0068 dc         1 CLA      0.029100
    104 H143       81.4389   57.6484   44.2434 dc         1 CLA      0.063600
    105 H142       82.1914   56.2034   43.3455 dc         1 CLA      0.063600
    106 H141       82.7145   56.6383   45.0920 dc         1 CLA      0.063600
    107 H122       83.6853   59.6200   41.8771 dc         1 CLA      0.032500
    108 H121       81.9440   59.1143   42.1902 dc         1 CLA      0.032500
    109 H112       82.3168   58.4916   40.1369 dc         1 CLA      0.006600
    110 H111       82.3834   57.0954   41.1229 dc         1 CLA      0.006600
    111 H102       84.7555   56.8302   40.8037 dc         1 CLA      0.024100
    112 H101       84.9645   58.4718   40.3857 dc         1 CLA      0.024100
    113 HHD        70.7309   57.8461   40.6189 da         1 CLA      0.174300
    114 HHC        75.2080   61.4513   43.5129 da         1 CLA      0.136800
    115 HHB        79.4735   60.1458   38.8937 da         1 CLA      0.138300
    116 HBD        74.9449   55.7784   35.2214 dc         1 CLA      0.107700
    117 HAB        76.7815   62.7755   43.9321 da         1 CLA      0.155200
    118 H93        86.2170   56.2796   38.4418 dc         1 CLA      0.069500
    119 H92        85.4652   56.9437   36.9505 dc         1 CLA      0.069500
    120 H91        86.1650   58.0224   38.2109 dc         1 CLA      0.069500
    121 H8         83.7761   58.0300   38.1137 dc         1 CLA      0.029300
    122 H72        82.4491   56.2466   39.0347 dc         1 CLA      0.044400
    123 H71        83.8847   55.2073   39.2975 dc         1 CLA      0.044400
    124 H62        84.0884   54.8775   36.7636 dc         1 CLA      0.015600
    125 H61        82.8979   56.1221   36.4046 dc         1 CLA      0.015600
    126 H52        81.2293   54.8382   37.8757 dc         1 CLA      0.033200
    127 H51        82.4515   53.6314   37.9569 dc         1 CLA      0.033200
    128 H43        83.3521   52.7749   35.4513 dc         1 CLA      0.037000
    129 H42        82.1563   51.7026   36.2397 dc         1 CLA      0.037000
    130 H41        81.9379   52.2014   34.5946 dc         1 CLA      0.037000
    131 H3A        79.0631   58.9458   36.4195 dc         1 CLA      0.041100
    132 H2A        77.7731   56.3586   36.2180 dc         1 CLA      0.083100
    133 H2         79.5741   53.7846   35.7717 da         1 CLA      0.180900
    134 H18        81.7011   62.3069   46.0370 dc         1 CLA     -0.003900
    135 H13        84.3432   57.5062   43.3109 dc         1 CLA      0.019700
    136 H12        80.3134   54.4814   33.2489 dc         1 CLA      0.120400
    137 H11        81.3640   55.6263   33.9877 dc         1 CLA      0.120400
    138 C1         67.3557   61.7366   50.1246 Z1         2 LUT      0.509236
    139 C2         66.0021   61.4297   50.7893 Z2         2 LUT     -0.434695
    140 C3         65.2573   62.7212   51.1484 Z3         2 LUT      0.437453
    141 O3         65.6011   63.3899   52.3066 S1         2 LUT     -0.547129
    142 C4         65.1662   63.7378   49.9898 Z4         2 LUT     -0.468603
    143 C5         66.1067   63.5355   48.8149 Z5         2 LUT      0.279246
    144 C6         67.1800   62.6837   48.9000 Z6         2 LUT     -0.305473
    145 C7         67.7120   62.1874   47.6524 Z7         2 LUT      0.069402
    146 C8         68.6118   62.7646   46.8720 Z8         2 LUT     -0.191631
    147 C9         69.1207   62.2909   45.5752 Z9         2 LUT      0.196698
    148 C10        70.2089   62.9937   45.1097 Y1         2 LUT     -0.208611
    149 C11        70.9710   62.9338   43.8740 Y2         2 LUT      0.030784
    150 C12        72.1499   63.6403   43.8752 Y3         2 LUT     -0.220316
    151 C13        73.0124   63.6747   42.6881 Y4         2 LUT      0.215937
    152 C14        74.2602   64.3592   42.7599 Y5         2 LUT     -0.185793
    153 C15        75.3440   64.4400   41.8546 Y6         2 LUT     -0.057835
    154 C16        67.9830   60.3606   49.8774 Y7         2 LUT     -0.405615
    155 C17        68.2393   62.5894   51.1182 Y7         2 LUT     -0.405615
    156 C18        65.6374   64.2503   47.6131 Y9         2 LUT     -0.369639
    157 C19        68.4456   61.1513   44.8408 W1         2 LUT     -0.333362
    158 C20        72.4564   63.1996   41.3358 W2         2 LUT     -0.323439
    159 C21        86.9232   64.6549   35.6011 Z1         2 LUT      0.406104
    160 C22        87.5586   64.0893   34.3513 Z2         2 LUT     -0.404965
    161 C23        87.4407   64.8816   33.0362 Z3         2 LUT      0.391255
    162 O23        87.8998   64.0038   31.9962 S1         2 LUT     -0.528210
    163 C24        86.1862   65.6508   32.9904 W6         2 LUT     -0.258361
    164 C25        85.2124   65.6130   33.9363 Z5         2 LUT      0.133546
    165 C26        85.4324   64.9411   35.2433 W8         2 LUT     -0.147008
    166 C27        84.7239   65.6676   36.3846 Z7         2 LUT      0.023843
    167 C28        83.5720   65.2815   37.0238 Z8         2 LUT     -0.216987
    168 C29        82.8959   66.0276   38.1375 Z9         2 LUT      0.206524
    169 C30        81.6799   65.5193   38.6578 Y1         2 LUT     -0.215556
    170 C31        80.8991   65.9912   39.7853 Y2         2 LUT      0.025142
    171 C32        79.7996   65.2438   40.1134 Y3         2 LUT     -0.212209
    172 C33        78.8146   65.5517   41.1962 Y4         2 LUT      0.240937
    173 C34        77.5862   64.8956   41.1515 Y5         2 LUT     -0.218862
    174 C35        76.5339   65.0690   42.0741 Y6         2 LUT     -0.023547
    175 C36        87.6869   66.0171   35.9293 Y7         2 LUT     -0.393485
    176 C37        87.0949   63.6570   36.8022 Y7         2 LUT     -0.393485
    177 C38        83.8412   66.2649   33.7348 Y9         2 LUT     -0.387526
    178 C39        83.6347   67.1273   38.8344 W1         2 LUT     -0.322618
    179 C40        79.1597   66.6568   42.2382 W2         2 LUT     -0.358472
    180 H403       78.8188   67.6206   41.9833 R7         2 LUT      0.097720
    181 H402       78.7368   66.4024   43.2318 R7         2 LUT      0.097720
    182 H401       80.2209   66.8736   42.3510 R7         2 LUT      0.097720
    183 H393       83.0657   67.7425   39.5247 R4         2 LUT      0.082505
    184 H392       84.4977   66.7394   39.3183 R4         2 LUT      0.082505
    185 H391       83.9765   67.9166   38.1443 R4         2 LUT      0.082505
    186 H383       83.6952   66.8075   32.7093 R1         2 LUT      0.104030
    187 H382       83.0467   65.4786   33.7467 R1         2 LUT      0.104030
    188 H381       83.6317   66.9712   34.4954 R1         2 LUT      0.104030
    189 H373       86.7057   64.1082   37.6886 T4         2 LUT      0.089537
    190 H372       86.5290   62.7299   36.5864 T4         2 LUT      0.089537
    191 H371       88.0452   63.3188   37.0146 T4         2 LUT      0.089537
    192 H363       87.4221   66.8295   35.2637 T4         2 LUT      0.089537
    193 H362       87.2245   66.3775   36.9232 T4         2 LUT      0.089537
    194 H361       88.7428   65.9877   36.1631 T4         2 LUT      0.089537
    195 H222       88.6934   63.9302   34.5184 U2         2 LUT      0.127376
    196 H221       87.0223   63.1778   34.0884 U2         2 LUT      0.127376
    197 H203       71.3891   63.3927   41.1575 R7         2 LUT      0.087068
    198 H202       73.0020   63.5728   40.5030 R7         2 LUT      0.087068
    199 H201       72.5905   62.1305   41.1831 R7         2 LUT      0.087068
    200 H193       67.4455   61.4997   44.5372 R4         2 LUT      0.089716
    201 H192       69.0389   60.9692   43.9992 R4         2 LUT      0.089716
    202 H191       68.3594   60.2309   45.4680 R4         2 LUT      0.089716
    203 H183       65.3738   63.5778   46.7710 R1         2 LUT      0.094572
    204 H182       64.8837   64.9269   47.9752 R1         2 LUT      0.094572
    205 H181       66.3837   64.9025   47.2070 R1         2 LUT      0.094572
    206 H173       68.3088   62.1828   52.0943 T4         2 LUT      0.093752
    207 H172       69.3238   62.6495   50.7607 T4         2 LUT      0.093752
    208 H171       67.8507   63.6048   51.2273 T4         2 LUT      0.093752
    209 H163       67.4745   59.7419   49.1622 T4         2 LUT      0.093752
    210 H162       69.0475   60.3138   49.6169 T4         2 LUT      0.093752
    211 H161       68.0075   59.7800   50.7935 T4         2 LUT      0.093752
    212 HO3        65.6191   62.7246   53.0382 Q1         2 LUT      0.300121
    213 H8         69.0412   63.7060   47.2583 U7         2 LUT      0.080784
    214 H7         67.2786   61.3066   47.1629 U6         2 LUT      0.042190
    215 H42        64.2159   63.5938   49.6061 U5         2 LUT      0.145166
    216 H41        65.1990   64.7738   50.3502 U5         2 LUT      0.145166
    217 H35        76.6436   65.7251   42.9905 T3         2 LUT      0.077919
    218 H34        77.4828   64.1149   40.3667 T2         2 LUT      0.073626
    219 H32        79.4852   64.4095   39.4459 T1         2 LUT      0.092510
    220 H31        81.1601   66.8193   40.4099 U9         2 LUT      0.070048
    221 H30        81.2156   64.6814   38.0945 U8         2 LUT      0.085442
    222 H3         64.2246   62.4599   51.2442 U3         2 LUT     -0.031596
    223 H28        83.0950   64.4409   36.6437 U7         2 LUT      0.084728
    224 H27        85.2236   66.6732   36.4974 U6         2 LUT      0.087291
    225 H26        84.9711   63.8838   35.1170 Q6         2 LUT      0.075325
    226 H24        86.0571   66.2561   32.0478 Q5         2 LUT      0.094482
    227 H23        88.1742   65.6526   33.1089 U3         2 LUT     -0.024869
    228 H22        65.3719   60.7931   50.1754 U2         2 LUT      0.127376
    229 H21        66.2225   60.7613   51.6597 U2         2 LUT      0.127376
    230 H15        75.2872   63.8852   40.9650 T3         2 LUT      0.093200
    231 H14        74.4350   64.8924   43.7364 T2         2 LUT      0.068865
    232 H12        72.4836   64.1249   44.7385 T1         2 LUT      0.095507
    233 H11        70.7126   62.2252   43.0413 U9         2 LUT      0.068930
    234 H10        70.5059   63.8285   45.6951 U8         2 LUT      0.083911
    235 H1         87.6859   64.3657   31.1313 Q1         2 LUT      0.297311
@<TRIPOS>BOND
    1     6     1 1
    2     7     2 1
    3     8     3 1
    4     9     4 1
    5    11     4 1
    6    12     6 1
    7    13     9 1
    8    16     9 1
    9    25     5 1
   10    25    16 1
   11    26    10 1
   12    26    17 1
   13    27    18 1
   14    28    14 1
   15    28    19 1
   16    29    12 1
   17    30    13 1
   18    31    24 1
   19    32     1 1
   20    32    25 1
   21    33    21 1
   22    33    26 1
   23    34    22 1
   24    34    27 1
   25    35    23 1
   26    35    28 1
   27    36    12 1
   28    36    24 1
   29    37    13 1
   30    37    15 1
   31    38    31 1
   32    39    20 1
   33    39    32 1
   34    40     2 1
   35    40    33 1
   36    41     3 1
   37    41    34 1
   38    42     4 1
   39    42    35 1
   40    43    38 1
   41    44     5 1
   42    44    17 1
   43    44    39 1
   44    45    10 1
   45    45    18 1
   46    45    40 1
   47    46    19 1
   48    46    41 1
   49    47    14 1
   50    47    16 1
   51    47    42 1
   52    48    38 1
   53    49    48 1
   54    50    49 1
   55    51    50 1
   56    52    51 1
   57    53    51 1
   58    54    53 1
   59    55    54 1
   60    56    55 1
   61    57    56 1
   62    58    56 1
   63    59    58 1
   64    60    59 1
   65    61    60 1
   66    62    61 1
   67    63    61 1
   68    64    27 1
   69    64    46 1
   70    65     5 1
   71    65    10 1
   72    65    64 1
   73    65    14 1
   74    66    23 1
   75    67    23 1
   76    68    23 1
   77    69    22 1
   78    70    22 1
   79    71    22 1
   80    72    21 1
   81    73    21 1
   82    74    21 1
   83    75    20 1
   84    76    20 1
   85    77    20 1
   86    78    15 1
   87    79    15 1
   88    80    15 1
   89    81     8 1
   90    82     8 1
   91    83     8 1
   92    84     7 1
   93    85     7 1
   94    86     6 1
   95    87     6 1
   96    88     3 1
   97    89     3 1
   98    90     1 1
   99    91     1 1
  100    92    63 1
  101    93    63 1
  102    94    63 1
  103    95    62 1
  104    96    62 1
  105    97    62 1
  106    98    60 1
  107    99    60 1
  108   100    59 1
  109   101    59 1
  110   102    58 1
  111   103    58 1
  112   104    57 1
  113   105    57 1
  114   106    57 1
  115   107    55 1
  116   108    55 1
  117   109    54 1
  118   110    54 1
  119   111    53 1
  120   112    53 1
  121   113    19 1
  122   114    18 1
  123   115    17 1
  124   116     9 1
  125   117     2 1
  126   118    52 1
  127   119    52 1
  128   120    52 1
  129   121    51 1
  130   122    50 1
  131   123    50 1
  132   124    49 1
  133   125    49 1
  134   126    48 1
  135   127    48 1
  136   128    43 1
  137   129    43 1
  138   130    43 1
  139   131    39 1
  140   132    32 1
  141   133    31 1
  142   134    61 1
  143   135    56 1
  144   136    24 1
  145   137    24 1
  146   139   138 1
  147   140   139 1
  148   141   140 1
  149   142   140 1
  150   143   142 1
  151   144   138 1
  152   144   143 1
  153   145   144 1
  154   146   145 1
  155   147   146 1
  156   148   147 1
  157   149   148 1
  158   150   149 1
  159   151   150 1
  160   152   151 1
  161   153   152 1
  162   154   138 1
  163   155   138 1
  164   156   143 1
  165   157   147 1
  166   158   151 1
  167   160   159 1
  168   161   160 1
  169   162   161 1
  170   163   161 1
  171   164   163 1
  172   165   159 1
  173   165   164 1
  174   166   165 1
  175   167   166 1
  176   168   167 1
  177   169   168 1
  178   170   169 1
  179   171   170 1
  180   172   171 1
  181   173   172 1
  182   174   153 1
  183   174   173 1
  184   175   159 1
  185   176   159 1
  186   177   164 1
  187   178   168 1
  188   179   172 1
  189   180   179 1
  190   181   179 1
  191   182   179 1
  192   183   178 1
  193   184   178 1
  194   185   178 1
  195   186   177 1
  196   187   177 1
  197   188   177 1
  198   189   176 1
  199   190   176 1
  200   191   176 1
  201   192   175 1
  202   193   175 1
  203   194   175 1
  204   195   160 1
  205   196   160 1
  206   197   158 1
  207   198   158 1
  208   199   158 1
  209   200   157 1
  210   201   157 1
  211   202   157 1
  212   203   156 1
  213   204   156 1
  214   205   156 1
  215   206   155 1
  216   207   155 1
  217   208   155 1
  218   209   154 1
  219   210   154 1
  220   211   154 1
  221   212   141 1
  222   213   146 1
  223   214   145 1
  224   215   142 1
  225   216   142 1
  226   217   174 1
  227   218   173 1
  228   219   171 1
  229   220   170 1
  230   221   169 1
  231   222   140 1
  232   223   167 1
  233   224   166 1
  234   225   165 1
  235   226   163 1
  236   227   161 1
  237   228   139 1
  238   229   139 1
  239   230   153 1
  240   231   152 1
  241   232   150 1
  242   233   149 1
  243   234   148 1
  244   235   162 1
  245   65    153 1
  246   65    174 1
@<TRIPOS>SUBSTRUCTURE
      1 CLA               1 ****               0 ****  **** 
      2 LUT             138 ****               0 ****  **** 
