@<TRIPOS>MOLECULE
Cpptraj generated mol2 file.
  235   246     2     0     0
SMALL
USER_CHARGES


@<TRIPOS>ATOM
      1 CAA        78.9611   58.6556   34.0685 a2         1 CLA     -0.055900
      2 CAB        79.3205   62.4302   43.1295 c8         1 CLA     -0.148500
      3 CAC        72.4057   58.3508   43.1063 a2         1 CLA     -0.012600
      4 CAD        74.7291   56.2064   35.5049 ck         1 CLA      0.398800
      5 NA         78.0582   59.0027   37.5822 ns         1 CLA     -0.225500
      6 CBA        80.1735   58.3541   33.1838 a2         1 CLA     -0.135000
      7 CBB        80.4720   62.7439   43.7722 c0         1 CLA     -0.395200
      8 CBC        72.3359   56.7904   43.0672 a3         1 CLA     -0.037700
      9 CBD        76.1777   56.8440   35.0790 a1         1 CLA     -0.053900
     10 NB         78.1036   60.4945   40.2765 nm         1 CLA     -0.295700
     11 OBD        74.2110   55.3756   34.7630 o2         1 CLA     -0.494600
     12 CGA        80.5596   56.8324   32.9150 c4         1 CLA      0.827000
     13 CGD        77.0448   55.6459   34.5853 c4         1 CLA      0.655300
     14 ND         75.2757   58.1878   38.3709 nm         1 CLA     -0.291600
     15 CED        77.1359   53.3372   34.8008 a3         1 CLA      0.005400
     16 CHA        76.6675   57.6143   36.3153 cs         1 CLA     -0.123800
     17 CHB        79.8220   60.2916   38.5468 aa         1 CLA     -0.291900
     18 CHC        76.8319   60.7332   42.3750 aa         1 CLA     -0.090400
     19 CHD        73.4694   58.1751   39.9929 aa         1 CLA     -0.052000
     20 CMA        81.3680   58.3210   36.8071 a3         1 CLA     -0.230700
     21 CMB        81.4427   62.1117   40.5669 a3         1 CLA     -0.180800
     22 CMC        74.7117   60.0870   44.6368 a3         1 CLA     -0.134000
     23 CMD        72.0230   56.3646   37.6182 a3         1 CLA     -0.141100
     24 C1         81.6840   54.9333   33.7751 a2         1 CLA      0.023000
     25 C1A        77.8177   58.3124   36.4630 ac         1 CLA     -0.015100
     26 C1B        79.3616   60.7214   39.7997 cr         1 CLA      0.054700
     27 C1C        75.6740   60.0235   42.1864 cn         1 CLA     -0.005600
     28 C1D        73.9703   57.8121   38.7159 ap         1 CLA     -0.047300
     29 O1A        80.4149   56.2135   31.8936 o2         1 CLA     -0.610800
     30 O1D        77.8036   55.7213   33.6683 o2         1 CLA     -0.558200
     31 C2         82.5639   54.5291   34.9417 c8         1 CLA     -0.325100
     32 C2A        79.0622   58.0990   35.5514 a1         1 CLA      0.098600
     33 C2B        80.0710   61.5212   40.8173 cb         1 CLA      0.088500
     34 C2C        74.6549   59.6749   43.1842 cb         1 CLA      0.053700
     35 C2D        73.4179   56.9888   37.6623 cb         1 CLA      0.058900
     36 O2A        81.2481   56.2889   33.9686 o1         1 CLA     -0.437200
     37 O2D        76.9192   54.5865   35.4413 o1         1 CLA     -0.357600
     38 C3         83.3771   53.4521   35.0294 c5         1 CLA      0.031200
     39 C3A        80.0607   59.0073   36.4031 a1         1 CLA      0.166800
     40 C3B        79.1566   61.7117   41.8812 cb         1 CLA      0.035000
     41 C3C        73.7341   58.8733   42.5042 cb         1 CLA     -0.089900
     42 C3D        74.4212   56.8526   36.7002 cb         1 CLA     -0.035900
     43 C4         82.9140   52.1775   35.6367 a3         1 CLA     -0.053300
     44 C4A        79.2926   59.4805   37.5440 ac         1 CLA      0.001800
     45 C4B        77.9464   61.0045   41.5294 cn         1 CLA     -0.020900
     46 C4C        74.2014   58.7983   41.0920 cr         1 CLA     -0.044400
     47 C4D        75.5486   57.6325   37.1488 c6         1 CLA     -0.046000
     48 C5         84.8117   53.6987   34.5509 a2         1 CLA     -0.070400
     49 C6         85.5903   55.0561   35.0142 a2         1 CLA      0.043900
     50 C7         85.7064   55.0262   36.5391 a2         1 CLA     -0.150000
     51 C8         86.0986   56.2819   37.3278 a1         1 CLA      0.064200
     52 C9         87.5795   56.5534   36.8466 a3         1 CLA     -0.259300
     53 C10        85.9816   56.0731   38.8342 a2         1 CLA     -0.071900
     54 C11        84.5879   56.6027   39.3558 a2         1 CLA      0.014500
     55 C12        84.4539   56.6250   40.8629 a2         1 CLA     -0.112100
     56 C13        83.0310   57.1427   41.4492 a1         1 CLA      0.089200
     57 C14        82.8079   58.6060   41.1112 a3         1 CLA     -0.239100
     58 C15        82.9366   56.9018   43.0204 a2         1 CLA     -0.102200
     59 C16        84.1376   57.4577   43.8755 a2         1 CLA      0.023900
     60 C17        83.8172   57.2718   45.4222 a2         1 CLA     -0.105700
     61 C18        84.9605   57.4397   46.4011 a1         1 CLA      0.206800
     62 C19        85.2748   58.9523   46.5979 a3         1 CLA     -0.280100
     63 C20        84.5720   56.7795   47.7438 a3         1 CLA     -0.280100
     64 NC         75.4093   59.3995   40.9594 nx         1 CLA     -0.309200
     65 MG         76.5481   59.3797   39.2156 mg         1 CLA      0.895000
     66 HMD3       71.4000   57.1397   37.2527 dc         1 CLA      0.064300
     67 HMD2       72.1417   55.5175   36.9481 dc         1 CLA      0.064300
     68 HMD1       71.6959   56.0799   38.6593 dc         1 CLA      0.064300
     69 HMC3       75.7276   59.7935   45.0211 dc         1 CLA      0.052100
     70 HMC2       74.6639   61.1455   44.7119 dc         1 CLA      0.052100
     71 HMC1       74.0008   59.5991   45.2534 dc         1 CLA      0.052100
     72 HMB3       81.7589   63.0428   41.0500 dc         1 CLA      0.063600
     73 HMB2       82.1310   61.3280   40.9213 dc         1 CLA      0.063600
     74 HMB1       81.5176   62.4249   39.5449 dc         1 CLA      0.063600
     75 HMA3       81.8257   57.7608   36.0518 dc         1 CLA      0.058300
     76 HMA2       82.0808   59.1176   37.0632 dc         1 CLA      0.058300
     77 HMA1       81.1441   57.6411   37.6401 dc         1 CLA      0.058300
     78 HED3       78.0641   53.1956   34.3199 dc         1 CLA      0.079300
     79 HED2       77.0147   52.5266   35.5189 dc         1 CLA      0.079300
     80 HED1       76.3646   53.3174   34.0747 dc         1 CLA      0.079300
     81 HBC3       73.0868   56.3360   43.6822 dc         1 CLA      0.016300
     82 HBC2       71.4219   56.5521   43.5640 dc         1 CLA      0.016300
     83 HBC1       72.4279   56.4451   42.0221 dc         1 CLA      0.016300
     84 HBB2       80.3777   63.2244   44.7612 da         1 CLA      0.183000
     85 HBB1       81.5366   62.6277   43.3189 da         1 CLA      0.183000
     86 HBA2       79.9851   58.8191   32.1817 dc         1 CLA      0.029400
     87 HBA1       81.0002   58.8904   33.5959 dc         1 CLA      0.029400
     88 HAC2       72.3790   58.5933   44.1222 dc         1 CLA      0.029300
     89 HAC1       71.5666   58.9038   42.7196 dc         1 CLA      0.029300
     90 HAA2       78.0440   58.2644   33.5864 dc         1 CLA      0.028700
     91 HAA1       78.7455   59.7291   33.9361 dc         1 CLA      0.028700
     92 H203       84.4369   55.7271   47.6539 dc         1 CLA      0.065600
     93 H202       85.3824   56.9625   48.4834 dc         1 CLA      0.065600
     94 H201       83.6795   57.2753   48.1507 dc         1 CLA      0.065600
     95 H193       86.1072   58.9780   47.2462 dc         1 CLA      0.065600
     96 H192       85.5974   59.4721   45.6936 dc         1 CLA      0.065600
     97 H191       84.4400   59.4702   47.0135 dc         1 CLA      0.065600
     98 H172       82.9585   57.9592   45.6230 dc         1 CLA      0.027600
     99 H171       83.4375   56.2985   45.4853 dc         1 CLA      0.027600
    100 H162       85.0804   56.9457   43.5202 dc         1 CLA      0.002900
    101 H161       84.2525   58.5720   43.7024 dc         1 CLA      0.002900
    102 H152       81.9644   57.1542   43.4152 dc         1 CLA      0.029100
    103 H151       83.1050   55.8421   43.0681 dc         1 CLA      0.029100
    104 H143       82.1503   58.4974   40.2017 dc         1 CLA      0.063600
    105 H142       82.2160   59.0655   41.8659 dc         1 CLA      0.063600
    106 H141       83.7208   59.1617   40.8997 dc         1 CLA      0.063600
    107 H122       84.7052   55.6677   41.3694 dc         1 CLA      0.032500
    108 H121       85.1704   57.3713   41.2637 dc         1 CLA      0.032500
    109 H112       84.3298   57.6096   38.9316 dc         1 CLA      0.006600
    110 H111       83.8474   55.8746   39.0746 dc         1 CLA      0.006600
    111 H102       86.1729   55.0733   39.1107 dc         1 CLA      0.024100
    112 H101       86.6642   56.7542   39.3202 dc         1 CLA      0.024100
    113 HHD        72.4843   57.8094   40.0805 da         1 CLA      0.174300
    114 HHC        77.0007   61.0794   43.3571 da         1 CLA      0.136800
    115 HHB        80.8759   60.5954   38.3258 da         1 CLA      0.138300
    116 HBD        76.0010   57.5093   34.2636 dc         1 CLA      0.107700
    117 HAB        78.3744   62.8932   43.5276 da         1 CLA      0.155200
    118 H93        88.0653   55.5761   37.0072 dc         1 CLA      0.069500
    119 H92        87.6239   56.8478   35.7302 dc         1 CLA      0.069500
    120 H91        87.9641   57.3003   37.5221 dc         1 CLA      0.069500
    121 H8         85.6528   57.1962   37.0382 dc         1 CLA      0.029300
    122 H72        84.8590   54.6194   37.0340 dc         1 CLA      0.044400
    123 H71        86.4431   54.1876   36.8163 dc         1 CLA      0.044400
    124 H62        86.6121   55.0066   34.5763 dc         1 CLA      0.015600
    125 H61        85.0877   55.9646   34.7084 dc         1 CLA      0.015600
    126 H52        85.4147   52.9863   35.0884 dc         1 CLA      0.033200
    127 H51        84.9555   53.4732   33.4898 dc         1 CLA      0.033200
    128 H43        83.4258   51.2762   35.2993 dc         1 CLA      0.037000
    129 H42        83.1132   52.1865   36.7303 dc         1 CLA      0.037000
    130 H41        81.8429   51.9599   35.5763 dc         1 CLA      0.037000
    131 H3A        80.2473   59.7986   35.7256 dc         1 CLA      0.041100
    132 H2A        79.2973   57.0436   35.5798 dc         1 CLA      0.083100
    133 H2         82.4823   55.1613   35.8614 da         1 CLA      0.180900
    134 H18        85.8224   56.9721   45.8295 dc         1 CLA     -0.003900
    135 H13        82.2912   56.5806   40.9811 dc         1 CLA      0.019700
    136 H12        80.8196   54.2321   33.7452 dc         1 CLA      0.120400
    137 H11        82.2856   54.7876   32.8662 dc         1 CLA      0.120400
    138 C1         68.8335   61.7778   49.8022 Z1         2 LUT      0.509236
    139 C2         68.3733   62.5353   51.0387 Z2         2 LUT     -0.434695
    140 C3         66.8953   62.7989   51.0878 Z3         2 LUT      0.437453
    141 O3         66.6910   63.7571   52.0882 S1         2 LUT     -0.547129
    142 C4         66.4527   63.4196   49.7848 Z4         2 LUT     -0.468603
    143 C5         67.1093   63.0175   48.5025 Z5         2 LUT      0.279246
    144 C6         68.1474   62.2048   48.4826 Z6         2 LUT     -0.305473
    145 C7         68.8993   62.0311   47.1821 Z7         2 LUT      0.069402
    146 C8         70.1718   62.2814   46.7118 Z8         2 LUT     -0.191631
    147 C9         70.6692   62.1791   45.3630 Z9         2 LUT      0.196698
    148 C10        71.7649   62.9173   45.0047 Y1         2 LUT     -0.208611
    149 C11        72.5545   62.9096   43.7527 Y2         2 LUT      0.030784
    150 C12        73.8176   63.4850   43.6451 Y3         2 LUT     -0.220316
    151 C13        74.6142   63.5188   42.3698 Y4         2 LUT      0.215937
    152 C14        75.8472   64.2354   42.4424 Y5         2 LUT     -0.185793
    153 C15        76.7898   64.3635   41.3598 Y6         2 LUT     -0.057835
    154 C16        68.3170   60.3242   50.0609 Y7         2 LUT     -0.405615
    155 C17        70.3915   61.6874   49.7898 Y7         2 LUT     -0.405615
    156 C18        66.7897   63.9012   47.3557 Y9         2 LUT     -0.369639
    157 C19        70.0798   61.1978   44.3582 W1         2 LUT     -0.333362
    158 C20        74.0681   62.8330   41.0754 W2         2 LUT     -0.323439
    159 C21        87.3601   66.2835   34.8105 Z1         2 LUT      0.406104
    160 C22        88.2096   65.8929   33.5826 Z2         2 LUT     -0.404965
    161 C23        88.4249   67.0378   32.5413 Z3         2 LUT      0.391255
    162 O23        89.2269   66.5837   31.5371 S1         2 LUT     -0.528210
    163 C24        87.1269   67.6912   32.1501 W6         2 LUT     -0.258361
    164 C25        86.0660   67.6534   32.9390 Z5         2 LUT      0.133546
    165 C26        86.0397   66.8701   34.2845 W8         2 LUT     -0.147008
    166 C27        85.2598   67.6711   35.3188 Z7         2 LUT      0.023843
    167 C28        84.2708   67.2007   36.1290 Z8         2 LUT     -0.216987
    168 C29        83.7599   67.6279   37.4148 Z9         2 LUT      0.206524
    169 C30        82.6989   66.8234   37.8886 Y1         2 LUT     -0.215556
    170 C31        82.0255   66.7965   39.1987 Y2         2 LUT      0.025142
    171 C32        80.8617   66.1118   39.4032 Y3         2 LUT     -0.212209
    172 C33        80.1477   66.0813   40.6108 Y4         2 LUT      0.240937
    173 C34        78.9264   65.3525   40.5724 Y5         2 LUT     -0.218862
    174 C35        77.9724   65.0965   41.5356 Y6         2 LUT     -0.023547
    175 C36        88.2295   67.1426   35.7503 Y7         2 LUT     -0.393485
    176 C37        87.1288   64.8984   35.5156 Y7         2 LUT     -0.393485
    177 C38        84.8455   68.4403   32.4912 Y9         2 LUT     -0.387526
    178 C39        84.4375   68.6524   38.2668 W1         2 LUT     -0.322618
    179 C40        80.5052   67.0468   41.7227 W2         2 LUT     -0.358472
    180 H403       80.9104   67.9780   41.3203 R7         2 LUT      0.097720
    181 H402       79.5764   67.2560   42.3402 R7         2 LUT      0.097720
    182 H401       81.2568   66.6164   42.4183 R7         2 LUT      0.097720
    183 H393       83.6745   69.2153   38.8491 R4         2 LUT      0.082505
    184 H392       85.0779   68.1230   39.0001 R4         2 LUT      0.082505
    185 H391       85.0003   69.4352   37.7617 R4         2 LUT      0.082505
    186 H383       84.1491   67.7754   32.0178 R1         2 LUT      0.104030
    187 H382       84.4715   69.0869   33.2869 R1         2 LUT      0.104030
    188 H381       85.1955   69.1306   31.7123 R1         2 LUT      0.104030
    189 H373       86.5084   65.0165   36.3679 T4         2 LUT      0.089537
    190 H372       86.6010   64.2157   34.8232 T4         2 LUT      0.089537
    191 H371       88.0444   64.4312   35.8263 T4         2 LUT      0.089537
    192 H363       87.7336   67.2592   36.7073 T4         2 LUT      0.089537
    193 H362       89.1624   66.6056   36.0252 T4         2 LUT      0.089537
    194 H361       88.4913   68.0881   35.2694 T4         2 LUT      0.089537
    195 H222       89.1455   65.5025   33.7566 U2         2 LUT      0.127376
    196 H221       87.8493   65.0688   32.9378 U2         2 LUT      0.127376
    197 H203       74.8333   62.6902   40.4002 R7         2 LUT      0.087068
    198 H202       73.7474   61.8163   41.3985 R7         2 LUT      0.087068
    199 H201       73.3070   63.3774   40.5533 R7         2 LUT      0.087068
    200 H193       70.9027   60.7815   43.8346 R4         2 LUT      0.089716
    201 H192       69.5118   60.3857   44.7357 R4         2 LUT      0.089716
    202 H191       69.4428   61.7248   43.6737 R4         2 LUT      0.089716
    203 H183       67.5026   64.6608   47.5268 R1         2 LUT      0.094572
    204 H182       66.9188   63.3881   46.4184 R1         2 LUT      0.094572
    205 H181       65.8215   64.3453   47.4445 R1         2 LUT      0.094572
    206 H173       70.9555   61.5804   50.7948 T4         2 LUT      0.093752
    207 H172       70.8065   60.9449   49.1550 T4         2 LUT      0.093752
    208 H171       70.8160   62.6129   49.4180 T4         2 LUT      0.093752
    209 H163       68.8509   59.5921   49.3908 T4         2 LUT      0.093752
    210 H162       68.5490   60.0976   51.0861 T4         2 LUT      0.093752
    211 H161       67.2597   60.2792   49.9591 T4         2 LUT      0.093752
    212 HO3        66.2303   63.3645   52.8559 Q1         2 LUT      0.300121
    213 H8         70.8807   62.6082   47.4491 U7         2 LUT      0.080784
    214 H7         68.2317   61.6340   46.3628 U6         2 LUT      0.042190
    215 H42        65.4060   63.1284   49.6577 U5         2 LUT      0.145166
    216 H41        66.5376   64.5022   49.9031 U5         2 LUT      0.145166
    217 H35        78.0452   65.5688   42.4702 T3         2 LUT      0.077919
    218 H34        78.6471   64.9119   39.5974 T2         2 LUT      0.073626
    219 H32        80.5094   65.5728   38.5866 T1         2 LUT      0.092510
    220 H31        82.4443   67.3930   39.9780 U9         2 LUT      0.070048
    221 H30        82.3546   66.0915   37.1448 U8         2 LUT      0.085442
    222 H3         66.3531   61.8435   51.2783 U3         2 LUT     -0.031596
    223 H28        83.7654   66.2958   35.6983 U7         2 LUT      0.084728
    224 H27        85.8044   68.5947   35.5277 U6         2 LUT      0.087291
    225 H26        85.5178   66.0157   33.8923 Q6         2 LUT      0.075325
    226 H24        87.0357   68.2680   31.2345 Q5         2 LUT      0.094482
    227 H23        89.0465   67.8010   33.1173 U3         2 LUT     -0.024869
    228 H22        68.7079   62.1833   52.0019 U2         2 LUT      0.127376
    229 H21        68.9606   63.5089   51.1022 U2         2 LUT      0.127376
    230 H15        76.7691   63.8370   40.4451 T3         2 LUT      0.093200
    231 H14        76.1228   64.5798   43.4222 T2         2 LUT      0.068865
    232 H12        74.2933   63.9791   44.4674 T1         2 LUT      0.095507
    233 H11        72.2002   62.3142   42.8613 U9         2 LUT      0.068930
    234 H10        72.0586   63.6414   45.7560 U8         2 LUT      0.083911
    235 H1         88.7534   66.0652   30.8828 Q1         2 LUT      0.297311
@<TRIPOS>BOND
    1     6     1 1
    2     7     2 1
    3     8     3 1
    4     9     4 1
    5    11     4 1
    6    12     6 1
    7    13     9 1
    8    16     9 1
    9    25     5 1
   10    25    16 1
   11    26    10 1
   12    26    17 1
   13    27    18 1
   14    28    14 1
   15    28    19 1
   16    29    12 1
   17    30    13 1
   18    31    24 1
   19    32     1 1
   20    32    25 1
   21    33    21 1
   22    33    26 1
   23    34    22 1
   24    34    27 1
   25    35    23 1
   26    35    28 1
   27    36    12 1
   28    36    24 1
   29    37    13 1
   30    37    15 1
   31    38    31 1
   32    39    20 1
   33    39    32 1
   34    40     2 1
   35    40    33 1
   36    41     3 1
   37    41    34 1
   38    42     4 1
   39    42    35 1
   40    43    38 1
   41    44     5 1
   42    44    17 1
   43    44    39 1
   44    45    10 1
   45    45    18 1
   46    45    40 1
   47    46    19 1
   48    46    41 1
   49    47    14 1
   50    47    16 1
   51    47    42 1
   52    48    38 1
   53    49    48 1
   54    50    49 1
   55    51    50 1
   56    52    51 1
   57    53    51 1
   58    54    53 1
   59    55    54 1
   60    56    55 1
   61    57    56 1
   62    58    56 1
   63    59    58 1
   64    60    59 1
   65    61    60 1
   66    62    61 1
   67    63    61 1
   68    64    27 1
   69    64    46 1
   70    65     5 1
   71    65    10 1
   72    65    64 1
   73    65    14 1
   74    66    23 1
   75    67    23 1
   76    68    23 1
   77    69    22 1
   78    70    22 1
   79    71    22 1
   80    72    21 1
   81    73    21 1
   82    74    21 1
   83    75    20 1
   84    76    20 1
   85    77    20 1
   86    78    15 1
   87    79    15 1
   88    80    15 1
   89    81     8 1
   90    82     8 1
   91    83     8 1
   92    84     7 1
   93    85     7 1
   94    86     6 1
   95    87     6 1
   96    88     3 1
   97    89     3 1
   98    90     1 1
   99    91     1 1
  100    92    63 1
  101    93    63 1
  102    94    63 1
  103    95    62 1
  104    96    62 1
  105    97    62 1
  106    98    60 1
  107    99    60 1
  108   100    59 1
  109   101    59 1
  110   102    58 1
  111   103    58 1
  112   104    57 1
  113   105    57 1
  114   106    57 1
  115   107    55 1
  116   108    55 1
  117   109    54 1
  118   110    54 1
  119   111    53 1
  120   112    53 1
  121   113    19 1
  122   114    18 1
  123   115    17 1
  124   116     9 1
  125   117     2 1
  126   118    52 1
  127   119    52 1
  128   120    52 1
  129   121    51 1
  130   122    50 1
  131   123    50 1
  132   124    49 1
  133   125    49 1
  134   126    48 1
  135   127    48 1
  136   128    43 1
  137   129    43 1
  138   130    43 1
  139   131    39 1
  140   132    32 1
  141   133    31 1
  142   134    61 1
  143   135    56 1
  144   136    24 1
  145   137    24 1
  146   139   138 1
  147   140   139 1
  148   141   140 1
  149   142   140 1
  150   143   142 1
  151   144   138 1
  152   144   143 1
  153   145   144 1
  154   146   145 1
  155   147   146 1
  156   148   147 1
  157   149   148 1
  158   150   149 1
  159   151   150 1
  160   152   151 1
  161   153   152 1
  162   154   138 1
  163   155   138 1
  164   156   143 1
  165   157   147 1
  166   158   151 1
  167   160   159 1
  168   161   160 1
  169   162   161 1
  170   163   161 1
  171   164   163 1
  172   165   159 1
  173   165   164 1
  174   166   165 1
  175   167   166 1
  176   168   167 1
  177   169   168 1
  178   170   169 1
  179   171   170 1
  180   172   171 1
  181   173   172 1
  182   174   153 1
  183   174   173 1
  184   175   159 1
  185   176   159 1
  186   177   164 1
  187   178   168 1
  188   179   172 1
  189   180   179 1
  190   181   179 1
  191   182   179 1
  192   183   178 1
  193   184   178 1
  194   185   178 1
  195   186   177 1
  196   187   177 1
  197   188   177 1
  198   189   176 1
  199   190   176 1
  200   191   176 1
  201   192   175 1
  202   193   175 1
  203   194   175 1
  204   195   160 1
  205   196   160 1
  206   197   158 1
  207   198   158 1
  208   199   158 1
  209   200   157 1
  210   201   157 1
  211   202   157 1
  212   203   156 1
  213   204   156 1
  214   205   156 1
  215   206   155 1
  216   207   155 1
  217   208   155 1
  218   209   154 1
  219   210   154 1
  220   211   154 1
  221   212   141 1
  222   213   146 1
  223   214   145 1
  224   215   142 1
  225   216   142 1
  226   217   174 1
  227   218   173 1
  228   219   171 1
  229   220   170 1
  230   221   169 1
  231   222   140 1
  232   223   167 1
  233   224   166 1
  234   225   165 1
  235   226   163 1
  236   227   161 1
  237   228   139 1
  238   229   139 1
  239   230   153 1
  240   231   152 1
  241   232   150 1
  242   233   149 1
  243   234   148 1
  244   235   162 1
  245   65    153 1
  246   65    174 1
@<TRIPOS>SUBSTRUCTURE
      1 CLA               1 ****               0 ****  **** 
      2 LUT             138 ****               0 ****  **** 
