@<TRIPOS>MOLECULE
Cpptraj generated mol2 file.
  235   246     2     0     0
SMALL
USER_CHARGES


@<TRIPOS>ATOM
      1 CAA        80.5401   59.3631   33.7116 a2         1 CLA     -0.055900
      2 CAB        78.6313   62.7301   42.7825 c8         1 CLA     -0.148500
      3 CAC        72.5778   57.7686   41.3710 a2         1 CLA     -0.012600
      4 CAD        76.5874   56.1024   34.3895 ck         1 CLA      0.398800
      5 NA         79.0361   59.3179   37.0344 ns         1 CLA     -0.225500
      6 CBA        81.8827   59.2496   32.9261 a2         1 CLA     -0.135000
      7 CBB        79.5942   63.1641   43.6731 c0         1 CLA     -0.395200
      8 CBC        72.6906   56.2179   41.4912 a3         1 CLA     -0.037700
      9 CBD        77.9418   56.8632   34.2269 a1         1 CLA     -0.053900
     10 NB         78.3394   60.7339   39.6718 nm         1 CLA     -0.295700
     11 OBD        76.0906   55.2374   33.6398 o2         1 CLA     -0.494600
     12 CGA        82.4726   57.8920   32.6385 c4         1 CLA      0.827000
     13 CGD        79.0788   55.9641   33.9788 c4         1 CLA      0.655300
     14 ND         76.3954   58.0427   37.3539 nm         1 CLA     -0.291600
     15 CED        80.0374   53.6686   34.4752 a3         1 CLA      0.005400
     16 CHA        78.1070   57.7330   35.4752 cs         1 CLA     -0.123800
     17 CHB        80.4562   60.7808   38.4155 aa         1 CLA     -0.291900
     18 CHC        76.6232   60.8093   41.4615 aa         1 CLA     -0.090400
     19 CHD        74.3911   57.4901   38.7984 aa         1 CLA     -0.052000
     20 CMA        82.4990   58.8334   36.9021 a3         1 CLA     -0.230700
     21 CMB        81.3451   62.7050   40.7539 a3         1 CLA     -0.180800
     22 CMC        74.1074   59.9912   43.1504 a3         1 CLA     -0.134000
     23 CMD        73.9350   55.4537   36.3932 a3         1 CLA     -0.141100
     24 C1         83.6244   56.0314   33.5762 a2         1 CLA      0.023000
     25 C1A        79.1509   58.5866   35.8766 ac         1 CLA     -0.015100
     26 C1B        79.6488   61.1037   39.5581 cr         1 CLA      0.054700
     27 C1C        75.6280   59.9096   41.0769 cn         1 CLA     -0.005600
     28 C1D        75.2333   57.2237   37.6889 ap         1 CLA     -0.047300
     29 O1A        82.3352   57.2580   31.6052 o2         1 CLA     -0.610800
     30 O1D        79.9294   56.1377   33.1268 o2         1 CLA     -0.558200
     31 C2         83.9259   55.5130   35.0106 c8         1 CLA     -0.325100
     32 C2A        80.4611   58.8106   35.1887 a1         1 CLA      0.098600
     33 C2B        80.0022   61.9322   40.7083 cb         1 CLA      0.088500
     34 C2C        74.4298   59.5314   41.7681 cb         1 CLA      0.053700
     35 C2D        75.0069   56.3445   36.5827 cb         1 CLA      0.058900
     36 O2A        83.1877   57.5190   33.6928 o1         1 CLA     -0.437200
     37 O2D        79.0701   54.7911   34.7738 o1         1 CLA     -0.357600
     38 C3         85.0114   54.6822   35.3032 c5         1 CLA      0.031200
     39 C3A        81.2506   59.5739   36.2919 a1         1 CLA      0.166800
     40 C3B        78.8711   62.0551   41.5305 cb         1 CLA      0.035000
     41 C3C        73.8424   58.5214   41.0357 cb         1 CLA     -0.089900
     42 C3D        76.0796   56.5068   35.6798 cb         1 CLA     -0.035900
     43 C4         84.8490   53.1501   35.3383 a3         1 CLA     -0.053300
     44 C4A        80.1864   59.9424   37.3522 ac         1 CLA      0.001800
     45 C4B        77.8447   61.2297   40.8502 cn         1 CLA     -0.020900
     46 C4C        74.6024   58.4056   39.8366 cr         1 CLA     -0.044400
     47 C4D        76.8923   57.5981   36.1823 c6         1 CLA     -0.046000
     48 C5         86.4486   55.1940   35.4834 a2         1 CLA     -0.070400
     49 C6         86.7439   56.4209   36.3230 a2         1 CLA      0.043900
     50 C7         86.6144   56.1294   37.7947 a2         1 CLA     -0.150000
     51 C8         86.7929   57.3965   38.6845 a1         1 CLA      0.064200
     52 C9         88.0741   58.1981   38.3423 a3         1 CLA     -0.259300
     53 C10        86.8945   56.8643   40.1863 a2         1 CLA     -0.071900
     54 C11        86.7975   57.9880   41.2541 a2         1 CLA      0.014500
     55 C12        86.7012   57.3843   42.6928 a2         1 CLA     -0.112100
     56 C13        87.1232   58.3178   43.8253 a1         1 CLA      0.089200
     57 C14        88.6890   58.3079   43.9724 a3         1 CLA     -0.239100
     58 C15        86.5629   57.8369   45.1998 a2         1 CLA     -0.102200
     59 C16        85.0404   57.7519   45.4042 a2         1 CLA      0.023900
     60 C17        84.3926   59.1770   45.5344 a2         1 CLA     -0.105700
     61 C18        82.8394   59.2612   45.8190 a1         1 CLA      0.206800
     62 C19        82.4469   58.4106   46.9882 a3         1 CLA     -0.280100
     63 C20        82.3556   60.6910   45.8067 a3         1 CLA     -0.280100
     64 NC         75.7122   59.2448   39.9107 nx         1 CLA     -0.309200
     65 MG         77.3027   59.4322   38.4428 mg         1 CLA      0.895000
     66 HMD3       73.4397   55.1418   37.3195 dc         1 CLA      0.064300
     67 HMD2       73.1592   55.7597   35.6694 dc         1 CLA      0.064300
     68 HMD1       74.5476   54.6052   36.0270 dc         1 CLA      0.064300
     69 HMC3       74.4164   59.2565   43.9237 dc         1 CLA      0.052100
     70 HMC2       74.7041   60.9055   43.4067 dc         1 CLA      0.052100
     71 HMC1       72.9959   60.0380   43.1977 dc         1 CLA      0.052100
     72 HMB3       82.1012   61.9633   40.6903 dc         1 CLA      0.063600
     73 HMB2       81.4049   63.2433   39.7749 dc         1 CLA      0.063600
     74 HMB1       81.3546   63.3350   41.6370 dc         1 CLA      0.063600
     75 HMA3       82.0922   58.0236   37.4823 dc         1 CLA      0.058300
     76 HMA2       83.1463   58.6551   36.0147 dc         1 CLA      0.058300
     77 HMA1       83.0673   59.5013   37.4662 dc         1 CLA      0.058300
     78 HED3       81.0251   54.1683   34.3400 dc         1 CLA      0.079300
     79 HED2       80.2357   52.9386   35.3228 dc         1 CLA      0.079300
     80 HED1       79.7087   53.1327   33.5787 dc         1 CLA      0.079300
     81 HBC3       73.0483   55.6810   40.6112 dc         1 CLA      0.016300
     82 HBC2       73.3875   56.0980   42.2655 dc         1 CLA      0.016300
     83 HBC1       71.7585   55.7419   41.9121 dc         1 CLA      0.016300
     84 HBB2       79.3095   63.5511   44.6513 da         1 CLA      0.183000
     85 HBB1       80.6967   63.0201   43.6473 da         1 CLA      0.183000
     86 HBA2       81.7407   59.8081   31.9552 dc         1 CLA      0.029400
     87 HBA1       82.5624   59.9292   33.4770 dc         1 CLA      0.029400
     88 HAC2       72.1283   58.1424   42.3113 dc         1 CLA      0.029300
     89 HAC1       71.9316   57.9348   40.5676 dc         1 CLA      0.029300
     90 HAA2       79.9109   58.7782   33.0725 dc         1 CLA      0.028700
     91 HAA1       80.1646   60.3491   33.6743 dc         1 CLA      0.028700
     92 H203       81.3071   60.7830   46.0899 dc         1 CLA      0.065600
     93 H202       82.9239   61.1897   46.5527 dc         1 CLA      0.065600
     94 H201       82.5102   61.0834   44.7986 dc         1 CLA      0.065600
     95 H193       82.7999   58.7847   47.9549 dc         1 CLA      0.065600
     96 H192       81.4169   58.6657   47.2631 dc         1 CLA      0.065600
     97 H191       82.5244   57.4290   46.7821 dc         1 CLA      0.065600
     98 H172       84.8599   59.6008   46.4323 dc         1 CLA      0.027600
     99 H171       84.6079   59.7110   44.5735 dc         1 CLA      0.027600
    100 H162       84.4964   57.1036   44.7158 dc         1 CLA      0.002900
    101 H161       84.9485   57.3699   46.4084 dc         1 CLA      0.002900
    102 H152       86.9152   56.7766   45.2985 dc         1 CLA      0.029100
    103 H151       86.8376   58.4810   46.0474 dc         1 CLA      0.029100
    104 H143       88.9683   58.7448   44.9028 dc         1 CLA      0.063600
    105 H142       88.9468   57.2104   43.8059 dc         1 CLA      0.063600
    106 H141       89.1464   58.8604   43.1465 dc         1 CLA      0.063600
    107 H122       85.7316   56.9191   42.9032 dc         1 CLA      0.032500
    108 H121       87.3325   56.4903   42.6488 dc         1 CLA      0.032500
    109 H112       87.6402   58.6499   41.2550 dc         1 CLA      0.006600
    110 H111       85.8851   58.6196   41.0749 dc         1 CLA      0.006600
    111 H102       86.1172   56.1341   40.4181 dc         1 CLA      0.024100
    112 H101       87.8888   56.3504   40.3063 dc         1 CLA      0.024100
    113 HHD        73.5004   56.9025   38.9048 da         1 CLA      0.174300
    114 HHC        76.3779   61.2609   42.4189 da         1 CLA      0.136800
    115 HHB        81.5438   61.1272   38.4072 da         1 CLA      0.138300
    116 HBD        77.8211   57.5215   33.3708 dc         1 CLA      0.107700
    117 HAB        77.6106   62.8512   43.0594 da         1 CLA      0.155200
    118 H93        88.2674   59.1203   38.9346 dc         1 CLA      0.069500
    119 H92        88.6950   57.3389   38.5909 dc         1 CLA      0.069500
    120 H91        88.2082   58.4094   37.3134 dc         1 CLA      0.069500
    121 H8         85.9117   58.0509   38.8006 dc         1 CLA      0.029300
    122 H72        85.7412   55.5870   38.1083 dc         1 CLA      0.044400
    123 H71        87.5303   55.4941   38.0450 dc         1 CLA      0.044400
    124 H62        87.7926   56.6602   36.0820 dc         1 CLA      0.015600
    125 H61        86.0953   57.2651   36.1202 dc         1 CLA      0.015600
    126 H52        87.1260   54.4210   35.9260 dc         1 CLA      0.033200
    127 H51        86.8374   55.4478   34.4848 dc         1 CLA      0.033200
    128 H43        85.0412   52.9326   36.3084 dc         1 CLA      0.037000
    129 H42        83.7805   52.9523   35.0808 dc         1 CLA      0.037000
    130 H41        85.5648   52.7128   34.6666 dc         1 CLA      0.037000
    131 H3A        81.6653   60.3970   35.7785 dc         1 CLA      0.041100
    132 H2A        80.9151   57.8447   35.1378 dc         1 CLA      0.083100
    133 H2         83.4930   55.9912   35.9228 da         1 CLA      0.180900
    134 H18        82.4735   58.6920   44.9412 dc         1 CLA     -0.003900
    135 H13        86.7214   59.3600   43.7007 dc         1 CLA      0.019700
    136 H12        82.8846   55.3578   33.2146 dc         1 CLA      0.120400
    137 H11        84.5950   55.9744   33.0928 dc         1 CLA      0.120400
    138 C1         69.3670   61.8335   49.4292 Z1         2 LUT      0.509236
    139 C2         67.9512   61.6889   50.1087 Z2         2 LUT     -0.434695
    140 C3         67.0571   62.8090   50.5647 Z3         2 LUT      0.437453
    141 O3         67.2556   63.2505   51.9128 S1         2 LUT     -0.547129
    142 C4         67.3144   64.0324   49.7031 Z4         2 LUT     -0.468603
    143 C5         68.1781   63.8701   48.4284 Z5         2 LUT      0.279246
    144 C6         69.1408   62.8494   48.3381 Z6         2 LUT     -0.305473
    145 C7         69.5694   62.4468   47.0192 Z7         2 LUT      0.069402
    146 C8         70.6536   62.8833   46.3420 Z8         2 LUT     -0.191631
    147 C9         71.0639   62.6987   44.8586 Z9         2 LUT      0.196698
    148 C10        72.2025   63.3246   44.4373 Y1         2 LUT     -0.208611
    149 C11        72.8472   63.2090   43.2031 Y2         2 LUT      0.030784
    150 C12        74.0662   63.7967   42.8797 Y3         2 LUT     -0.220316
    151 C13        74.9269   63.7327   41.7155 Y4         2 LUT      0.215937
    152 C14        76.0557   64.4762   41.7380 Y5         2 LUT     -0.185793
    153 C15        77.1352   64.7103   40.7976 Y6         2 LUT     -0.057835
    154 C16        69.9541   60.4188   48.9841 Y7         2 LUT     -0.405615
    155 C17        70.2800   62.4760   50.5585 Y7         2 LUT     -0.405615
    156 C18        67.5397   64.6898   47.3123 Y9         2 LUT     -0.369639
    157 C19        70.2775   61.6798   44.0809 W1         2 LUT     -0.333362
    158 C20        74.3096   63.2550   40.4133 W2         2 LUT     -0.323439
    159 C21        88.6918   66.1851   34.9744 Z1         2 LUT      0.406104
    160 C22        89.4942   65.6274   33.8122 Z2         2 LUT     -0.404965
    161 C23        89.5004   66.5386   32.6141 Z3         2 LUT      0.391255
    162 O23        90.2108   65.8811   31.5546 S1         2 LUT     -0.528210
    163 C24        88.1219   67.1194   32.2383 W6         2 LUT     -0.258361
    164 C25        87.0756   67.2352   33.0735 Z5         2 LUT      0.133546
    165 C26        87.2428   66.6687   34.5294 W8         2 LUT     -0.147008
    166 C27        86.4271   67.3542   35.6093 Z7         2 LUT      0.023843
    167 C28        85.3919   66.7766   36.2916 Z8         2 LUT     -0.216987
    168 C29        84.7421   67.2207   37.4941 Z9         2 LUT      0.206524
    169 C30        83.6392   66.4572   37.9122 Y1         2 LUT     -0.215556
    170 C31        82.6869   66.5484   39.0452 Y2         2 LUT      0.025142
    171 C32        81.4567   65.8745   39.1454 Y3         2 LUT     -0.212209
    172 C33        80.5495   66.0008   40.2741 Y4         2 LUT      0.240937
    173 C34        79.3535   65.3092   40.1769 Y5         2 LUT     -0.218862
    174 C35        78.2960   65.3620   41.1135 Y6         2 LUT     -0.023547
    175 C36        89.6742   67.2613   35.5446 Y7         2 LUT     -0.393485
    176 C37        88.6458   65.1672   36.0655 Y7         2 LUT     -0.393485
    177 C38        85.7082   67.7856   32.6612 Y9         2 LUT     -0.387526
    178 C39        85.2651   68.3680   38.2687 W1         2 LUT     -0.322618
    179 C40        80.8587   66.8827   41.4546 W2         2 LUT     -0.358472
    180 H403       80.3778   66.8534   42.3689 R7         2 LUT      0.097720
    181 H402       81.9202   66.8494   41.7744 R7         2 LUT      0.097720
    182 H401       80.6295   67.9277   41.1229 R7         2 LUT      0.097720
    183 H393       84.8421   69.3753   37.9774 R4         2 LUT      0.082505
    184 H392       85.1180   68.1858   39.3436 R4         2 LUT      0.082505
    185 H391       86.3519   68.4930   38.0498 R4         2 LUT      0.082505
    186 H383       85.1591   68.3943   33.4463 R1         2 LUT      0.104030
    187 H382       85.7773   68.5391   31.9184 R1         2 LUT      0.104030
    188 H381       85.1659   66.9478   32.1946 R1         2 LUT      0.104030
    189 H373       89.5522   65.0011   36.6474 T4         2 LUT      0.089537
    190 H372       87.8702   65.4715   36.7406 T4         2 LUT      0.089537
    191 H371       88.3300   64.2373   35.7333 T4         2 LUT      0.089537
    192 H363       89.7354   68.0270   34.8143 T4         2 LUT      0.089537
    193 H362       89.4143   67.6927   36.5689 T4         2 LUT      0.089537
    194 H361       90.7116   66.9442   35.6956 T4         2 LUT      0.089537
    195 H222       90.4620   65.2905   34.1353 U2         2 LUT      0.127376
    196 H221       89.0385   64.7055   33.5108 U2         2 LUT      0.127376
    197 H203       74.1526   62.2058   40.3908 R7         2 LUT      0.087068
    198 H202       73.3989   63.8200   40.0909 R7         2 LUT      0.087068
    199 H201       75.0372   63.3540   39.6170 R7         2 LUT      0.087068
    200 H193       69.2092   61.7376   44.3512 R4         2 LUT      0.089716
    201 H192       70.3447   61.7397   42.9840 R4         2 LUT      0.089716
    202 H191       70.4781   60.6856   44.3803 R4         2 LUT      0.089716
    203 H183       67.7604   64.2541   46.3212 R1         2 LUT      0.094572
    204 H182       66.4496   64.7703   47.4384 R1         2 LUT      0.094572
    205 H181       67.6845   65.7301   47.4832 R1         2 LUT      0.094572
    206 H173       69.6553   63.1351   51.0925 T4         2 LUT      0.093752
    207 H172       70.6696   61.6895   51.2139 T4         2 LUT      0.093752
    208 H171       71.1914   62.9700   50.1802 T4         2 LUT      0.093752
    209 H163       71.0213   60.5865   48.5771 T4         2 LUT      0.093752
    210 H162       69.8003   59.6681   49.8143 T4         2 LUT      0.093752
    211 H161       69.3642   60.0878   48.1118 T4         2 LUT      0.093752
    212 HO3        66.8576   62.6184   52.5638 Q1         2 LUT      0.300121
    213 H8         71.3346   63.4311   47.0529 U7         2 LUT      0.080784
    214 H7         68.8457   62.0581   46.3625 U6         2 LUT      0.042190
    215 H42        66.4528   64.5722   49.4527 U5         2 LUT      0.145166
    216 H41        67.8187   64.7725   50.2983 U5         2 LUT      0.145166
    217 H35        78.3344   65.8226   42.1202 T3         2 LUT      0.077919
    218 H34        79.1501   64.7341   39.2780 T2         2 LUT      0.073626
    219 H32        81.2652   65.2753   38.2708 T1         2 LUT      0.092510
    220 H31        83.0009   67.3206   39.8673 U9         2 LUT      0.070048
    221 H30        83.2957   65.7028   37.1798 U8         2 LUT      0.085442
    222 H3         66.0291   62.5940   50.4255 U3         2 LUT     -0.031596
    223 H28        85.0510   65.8916   35.7720 U7         2 LUT      0.084728
    224 H27        86.6528   68.3376   35.9474 U6         2 LUT      0.087291
    225 H26        86.8882   65.7078   34.2633 Q6         2 LUT      0.075325
    226 H24        88.0071   67.3663   31.2007 Q5         2 LUT      0.094482
    227 H23        90.0648   67.3908   32.8919 U3         2 LUT     -0.024869
    228 H22        67.3463   61.1287   49.3762 U2         2 LUT      0.127376
    229 H21        67.8556   60.9077   50.8224 U2         2 LUT      0.127376
    230 H15        77.0221   64.2457   39.8379 T3         2 LUT      0.093200
    231 H14        76.3157   64.8339   42.7096 T2         2 LUT      0.068865
    232 H12        74.4624   64.3425   43.7311 T1         2 LUT      0.095507
    233 H11        72.2786   62.5484   42.5115 U9         2 LUT      0.068930
    234 H10        72.7112   63.9976   45.1733 U8         2 LUT      0.083911
    235 H1         89.6508   65.2589   31.0156 Q1         2 LUT      0.297311
@<TRIPOS>BOND
    1     6     1 1
    2     7     2 1
    3     8     3 1
    4     9     4 1
    5    11     4 1
    6    12     6 1
    7    13     9 1
    8    16     9 1
    9    25     5 1
   10    25    16 1
   11    26    10 1
   12    26    17 1
   13    27    18 1
   14    28    14 1
   15    28    19 1
   16    29    12 1
   17    30    13 1
   18    31    24 1
   19    32     1 1
   20    32    25 1
   21    33    21 1
   22    33    26 1
   23    34    22 1
   24    34    27 1
   25    35    23 1
   26    35    28 1
   27    36    12 1
   28    36    24 1
   29    37    13 1
   30    37    15 1
   31    38    31 1
   32    39    20 1
   33    39    32 1
   34    40     2 1
   35    40    33 1
   36    41     3 1
   37    41    34 1
   38    42     4 1
   39    42    35 1
   40    43    38 1
   41    44     5 1
   42    44    17 1
   43    44    39 1
   44    45    10 1
   45    45    18 1
   46    45    40 1
   47    46    19 1
   48    46    41 1
   49    47    14 1
   50    47    16 1
   51    47    42 1
   52    48    38 1
   53    49    48 1
   54    50    49 1
   55    51    50 1
   56    52    51 1
   57    53    51 1
   58    54    53 1
   59    55    54 1
   60    56    55 1
   61    57    56 1
   62    58    56 1
   63    59    58 1
   64    60    59 1
   65    61    60 1
   66    62    61 1
   67    63    61 1
   68    64    27 1
   69    64    46 1
   70    65     5 1
   71    65    10 1
   72    65    64 1
   73    65    14 1
   74    66    23 1
   75    67    23 1
   76    68    23 1
   77    69    22 1
   78    70    22 1
   79    71    22 1
   80    72    21 1
   81    73    21 1
   82    74    21 1
   83    75    20 1
   84    76    20 1
   85    77    20 1
   86    78    15 1
   87    79    15 1
   88    80    15 1
   89    81     8 1
   90    82     8 1
   91    83     8 1
   92    84     7 1
   93    85     7 1
   94    86     6 1
   95    87     6 1
   96    88     3 1
   97    89     3 1
   98    90     1 1
   99    91     1 1
  100    92    63 1
  101    93    63 1
  102    94    63 1
  103    95    62 1
  104    96    62 1
  105    97    62 1
  106    98    60 1
  107    99    60 1
  108   100    59 1
  109   101    59 1
  110   102    58 1
  111   103    58 1
  112   104    57 1
  113   105    57 1
  114   106    57 1
  115   107    55 1
  116   108    55 1
  117   109    54 1
  118   110    54 1
  119   111    53 1
  120   112    53 1
  121   113    19 1
  122   114    18 1
  123   115    17 1
  124   116     9 1
  125   117     2 1
  126   118    52 1
  127   119    52 1
  128   120    52 1
  129   121    51 1
  130   122    50 1
  131   123    50 1
  132   124    49 1
  133   125    49 1
  134   126    48 1
  135   127    48 1
  136   128    43 1
  137   129    43 1
  138   130    43 1
  139   131    39 1
  140   132    32 1
  141   133    31 1
  142   134    61 1
  143   135    56 1
  144   136    24 1
  145   137    24 1
  146   139   138 1
  147   140   139 1
  148   141   140 1
  149   142   140 1
  150   143   142 1
  151   144   138 1
  152   144   143 1
  153   145   144 1
  154   146   145 1
  155   147   146 1
  156   148   147 1
  157   149   148 1
  158   150   149 1
  159   151   150 1
  160   152   151 1
  161   153   152 1
  162   154   138 1
  163   155   138 1
  164   156   143 1
  165   157   147 1
  166   158   151 1
  167   160   159 1
  168   161   160 1
  169   162   161 1
  170   163   161 1
  171   164   163 1
  172   165   159 1
  173   165   164 1
  174   166   165 1
  175   167   166 1
  176   168   167 1
  177   169   168 1
  178   170   169 1
  179   171   170 1
  180   172   171 1
  181   173   172 1
  182   174   153 1
  183   174   173 1
  184   175   159 1
  185   176   159 1
  186   177   164 1
  187   178   168 1
  188   179   172 1
  189   180   179 1
  190   181   179 1
  191   182   179 1
  192   183   178 1
  193   184   178 1
  194   185   178 1
  195   186   177 1
  196   187   177 1
  197   188   177 1
  198   189   176 1
  199   190   176 1
  200   191   176 1
  201   192   175 1
  202   193   175 1
  203   194   175 1
  204   195   160 1
  205   196   160 1
  206   197   158 1
  207   198   158 1
  208   199   158 1
  209   200   157 1
  210   201   157 1
  211   202   157 1
  212   203   156 1
  213   204   156 1
  214   205   156 1
  215   206   155 1
  216   207   155 1
  217   208   155 1
  218   209   154 1
  219   210   154 1
  220   211   154 1
  221   212   141 1
  222   213   146 1
  223   214   145 1
  224   215   142 1
  225   216   142 1
  226   217   174 1
  227   218   173 1
  228   219   171 1
  229   220   170 1
  230   221   169 1
  231   222   140 1
  232   223   167 1
  233   224   166 1
  234   225   165 1
  235   226   163 1
  236   227   161 1
  237   228   139 1
  238   229   139 1
  239   230   153 1
  240   231   152 1
  241   232   150 1
  242   233   149 1
  243   234   148 1
  244   235   162 1
  245   65    153 1
  246   65    174 1
@<TRIPOS>SUBSTRUCTURE
      1 CLA               1 ****               0 ****  **** 
      2 LUT             138 ****               0 ****  **** 
