@<TRIPOS>MOLECULE
Cpptraj generated mol2 file.
  235   246     2     0     0
SMALL
USER_CHARGES


@<TRIPOS>ATOM
      1 CAA        79.6587   58.9752   34.0802 a2         1 CLA     -0.055900
      2 CAB        80.1016   62.1622   43.3953 c8         1 CLA     -0.148500
      3 CAC        73.1469   58.4338   42.9307 a2         1 CLA     -0.012600
      4 CAD        75.4394   56.5880   35.2874 ck         1 CLA      0.398800
      5 NA         78.8429   59.1763   37.5941 ns         1 CLA     -0.225500
      6 CBA        80.9185   58.8978   33.2138 a2         1 CLA     -0.135000
      7 CBB        79.7061   61.6961   44.6147 c0         1 CLA     -0.395200
      8 CBC        73.5077   56.9756   43.0466 a3         1 CLA     -0.037700
      9 CBD        76.9492   57.0283   35.0200 a1         1 CLA     -0.053900
     10 NB         78.7631   60.5143   40.2358 nm         1 CLA     -0.295700
     11 OBD        74.6786   56.0424   34.5178 o2         1 CLA     -0.494600
     12 CGA        81.2588   57.4804   32.6774 c4         1 CLA      0.827000
     13 CGD        77.7081   55.7300   34.6753 c4         1 CLA      0.655300
     14 ND         75.9969   58.2385   38.2649 nm         1 CLA     -0.291600
     15 CED        78.3952   53.7303   35.5723 a3         1 CLA      0.005400
     16 CHA        77.3658   57.8215   36.2463 cs         1 CLA     -0.123800
     17 CHB        80.7475   60.3222   38.7377 aa         1 CLA     -0.291900
     18 CHC        77.3529   60.8948   42.3110 aa         1 CLA     -0.090400
     19 CHD        74.0713   58.3158   39.8024 aa         1 CLA     -0.052000
     20 CMA        82.2397   58.1436   36.7103 a3         1 CLA     -0.230700
     21 CMB        82.0975   61.6759   41.1161 a3         1 CLA     -0.180800
     22 CMC        75.2236   60.5687   44.3111 a3         1 CLA     -0.134000
     23 CMD        72.6208   56.7324   37.4228 a3         1 CLA     -0.141100
     24 C1         81.7372   55.2359   33.3154 a2         1 CLA      0.023000
     25 C1A        78.6109   58.4673   36.4645 ac         1 CLA     -0.015100
     26 C1B        80.0641   60.7150   39.9290 cr         1 CLA      0.054700
     27 C1C        76.1427   60.2418   41.9771 cn         1 CLA     -0.005600
     28 C1D        74.6145   58.0341   38.5597 ap         1 CLA     -0.047300
     29 O1A        81.2042   57.1180   31.5588 o2         1 CLA     -0.610800
     30 O1D        78.6029   55.7722   33.8301 o2         1 CLA     -0.558200
     31 C2         82.3958   54.4762   34.5564 c8         1 CLA     -0.325100
     32 C2A        79.8854   58.3364   35.5686 a1         1 CLA      0.098600
     33 C2B        80.7011   61.4259   41.0248 cb         1 CLA      0.088500
     34 C2C        75.0547   60.1106   42.8876 cb         1 CLA      0.053700
     35 C2D        74.0292   57.2255   37.4807 cb         1 CLA      0.058900
     36 O2A        81.5966   56.6500   33.7255 o1         1 CLA     -0.437200
     37 O2D        77.3028   54.6399   35.4711 o1         1 CLA     -0.357600
     38 C3         83.1933   53.4368   34.6138 c5         1 CLA      0.031200
     39 C3A        81.0495   59.0366   36.4562 a1         1 CLA      0.166800
     40 C3B        79.7748   61.5931   42.0402 cb         1 CLA      0.035000
     41 C3C        74.1739   59.1988   42.2544 cb         1 CLA     -0.089900
     42 C3D        75.0684   57.1249   36.6016 cb         1 CLA     -0.035900
     43 C4         82.7082   52.0959   34.9053 a3         1 CLA     -0.053300
     44 C4A        80.2108   59.5594   37.6890 ac         1 CLA      0.001800
     45 C4B        78.5264   60.9830   41.4963 cn         1 CLA     -0.020900
     46 C4C        74.6908   58.9938   40.8722 cr         1 CLA     -0.044400
     47 C4D        76.2147   57.7517   37.0826 c6         1 CLA     -0.046000
     48 C5         84.6821   53.6634   34.5766 a2         1 CLA     -0.070400
     49 C6         85.3337   54.8451   35.3029 a2         1 CLA      0.043900
     50 C7         85.1320   54.7729   36.8455 a2         1 CLA     -0.150000
     51 C8         85.2306   56.1179   37.5733 a1         1 CLA      0.064200
     52 C9         86.4995   56.9302   37.0670 a3         1 CLA     -0.259300
     53 C10        85.2020   55.8163   39.1204 a2         1 CLA     -0.071900
     54 C11        85.0557   57.0913   40.0123 a2         1 CLA      0.014500
     55 C12        85.0790   56.9037   41.6089 a2         1 CLA     -0.112100
     56 C13        84.6567   58.1652   42.4060 a1         1 CLA      0.089200
     57 C14        85.3775   59.5447   41.8850 a3         1 CLA     -0.239100
     58 C15        84.6064   58.0444   43.9330 a2         1 CLA     -0.102200
     59 C16        83.7646   59.1424   44.6410 a2         1 CLA      0.023900
     60 C17        83.7657   59.0975   46.1848 a2         1 CLA     -0.105700
     61 C18        82.6916   58.3218   46.9358 a1         1 CLA      0.206800
     62 C19        82.1032   57.1296   46.1829 a3         1 CLA     -0.280100
     63 C20        83.1363   57.9406   48.4474 a3         1 CLA     -0.280100
     64 NC         75.9517   59.5296   40.8226 nx         1 CLA     -0.309200
     65 MG         77.2937   59.4831   39.1635 mg         1 CLA      0.895000
     66 HMD3       72.5576   55.8902   36.7557 dc         1 CLA      0.064300
     67 HMD2       72.3447   56.2965   38.3789 dc         1 CLA      0.064300
     68 HMD1       71.8584   57.5334   37.1522 dc         1 CLA      0.064300
     69 HMC3       74.2703   60.5727   44.8926 dc         1 CLA      0.052100
     70 HMC2       75.9507   59.8444   44.7209 dc         1 CLA      0.052100
     71 HMC1       75.6962   61.5303   44.4219 dc         1 CLA      0.052100
     72 HMB3       82.3987   62.4087   40.4135 dc         1 CLA      0.063600
     73 HMB2       82.3784   61.9700   42.0994 dc         1 CLA      0.063600
     74 HMB1       82.5029   60.6714   40.7875 dc         1 CLA      0.063600
     75 HMA3       81.9929   57.3108   37.3044 dc         1 CLA      0.058300
     76 HMA2       82.6479   57.7812   35.8043 dc         1 CLA      0.058300
     77 HMA1       83.0554   58.7513   37.0889 dc         1 CLA      0.058300
     78 HED3       78.6643   53.2805   34.5302 dc         1 CLA      0.079300
     79 HED2       79.3512   54.1493   35.9614 dc         1 CLA      0.079300
     80 HED1       78.0943   52.8530   36.1843 dc         1 CLA      0.079300
     81 HBC3       72.9078   56.5538   43.8776 dc         1 CLA      0.016300
     82 HBC2       73.5334   56.3578   42.1884 dc         1 CLA      0.016300
     83 HBC1       74.5129   56.8426   43.5155 dc         1 CLA      0.016300
     84 HBB2       80.0300   62.2500   45.5163 da         1 CLA      0.183000
     85 HBB1       79.1811   60.7150   44.7320 da         1 CLA      0.183000
     86 HBA2       80.7207   59.6694   32.4293 dc         1 CLA      0.029400
     87 HBA1       81.6885   59.3109   33.7991 dc         1 CLA      0.029400
     88 HAC2       72.9497   58.8721   43.9051 dc         1 CLA      0.029300
     89 HAC1       72.1797   58.4120   42.4210 dc         1 CLA      0.029300
     90 HAA2       78.8452   58.4429   33.5739 dc         1 CLA      0.028700
     91 HAA1       79.3823   60.0212   34.1578 dc         1 CLA      0.028700
     92 H203       84.0326   57.2863   48.4223 dc         1 CLA      0.065600
     93 H202       83.3657   58.8529   49.0125 dc         1 CLA      0.065600
     94 H201       82.2776   57.4096   48.8685 dc         1 CLA      0.065600
     95 H193       81.2700   56.7409   46.6714 dc         1 CLA      0.065600
     96 H192       81.7424   57.3005   45.1608 dc         1 CLA      0.065600
     97 H191       82.8107   56.2902   46.1261 dc         1 CLA      0.065600
     98 H172       84.7837   58.9122   46.5731 dc         1 CLA      0.027600
     99 H171       83.4893   60.0851   46.6905 dc         1 CLA      0.027600
    100 H162       84.1535   60.0496   44.3909 dc         1 CLA      0.002900
    101 H161       82.7270   59.2774   44.2649 dc         1 CLA      0.002900
    102 H152       84.2208   57.0626   44.1853 dc         1 CLA      0.029100
    103 H151       85.5451   58.2352   44.4025 dc         1 CLA      0.029100
    104 H143       85.3585   59.6677   40.7795 dc         1 CLA      0.063600
    105 H142       85.0867   60.4250   42.3390 dc         1 CLA      0.063600
    106 H141       86.3901   59.4704   42.1649 dc         1 CLA      0.063600
    107 H122       84.4565   56.1019   41.9207 dc         1 CLA      0.032500
    108 H121       86.1101   56.6414   41.9191 dc         1 CLA      0.032500
    109 H112       85.7416   57.8654   39.6963 dc         1 CLA      0.006600
    110 H111       84.0794   57.4773   39.6943 dc         1 CLA      0.006600
    111 H102       84.2532   55.3326   39.3782 dc         1 CLA      0.024100
    112 H101       86.0581   55.2705   39.4423 dc         1 CLA      0.024100
    113 HHD        73.0710   57.9396   40.0212 da         1 CLA      0.174300
    114 HHC        77.3148   61.3900   43.2642 da         1 CLA      0.136800
    115 HHB        81.8316   60.5584   38.6658 da         1 CLA      0.138300
    116 HBD        76.9482   57.6630   34.1549 dc         1 CLA      0.107700
    117 HAB        80.6921   63.1057   43.3461 da         1 CLA      0.155200
    118 H93        86.1819   57.4377   36.2095 dc         1 CLA      0.069500
    119 H92        86.9447   57.6232   37.7555 dc         1 CLA      0.069500
    120 H91        87.2908   56.2924   36.7175 dc         1 CLA      0.069500
    121 H8         84.3839   56.7005   37.3254 dc         1 CLA      0.029300
    122 H72        84.0587   54.5017   36.9904 dc         1 CLA      0.044400
    123 H71        85.8568   54.0166   37.1791 dc         1 CLA      0.044400
    124 H62        86.4065   54.8622   35.1049 dc         1 CLA      0.015600
    125 H61        84.8824   55.6630   34.7546 dc         1 CLA      0.015600
    126 H52        85.1305   52.7060   34.8045 dc         1 CLA      0.033200
    127 H51        84.7339   53.7267   33.4865 dc         1 CLA      0.033200
    128 H43        83.0549   51.4702   34.0277 dc         1 CLA      0.037000
    129 H42        83.2415   51.7166   35.8106 dc         1 CLA      0.037000
    130 H41        81.6423   52.0126   34.9499 dc         1 CLA      0.037000
    131 H3A        81.3603   59.9736   35.9325 dc         1 CLA      0.041100
    132 H2A        80.1372   57.2688   35.4663 dc         1 CLA      0.083100
    133 H2         82.0631   54.8615   35.5749 da         1 CLA      0.180900
    134 H18        81.9143   59.0485   47.2202 dc         1 CLA     -0.003900
    135 H13        83.6289   58.4176   42.0829 dc         1 CLA      0.019700
    136 H12        80.7244   54.7511   33.1325 dc         1 CLA      0.120400
    137 H11        82.4257   55.1346   32.4773 dc         1 CLA      0.120400
    138 C1         69.0986   61.1892   49.9601 Z1         2 LUT      0.509236
    139 C2         67.6425   61.2400   50.5598 Z2         2 LUT     -0.434695
    140 C3         67.0969   62.6919   50.8438 Z3         2 LUT      0.437453
    141 O3         67.4657   63.0410   52.1690 S1         2 LUT     -0.547129
    142 C4         67.6671   63.6718   49.7529 Z4         2 LUT     -0.468603
    143 C5         68.2748   63.0684   48.5388 Z5         2 LUT      0.279246
    144 C6         69.0975   61.9947   48.6775 Z6         2 LUT     -0.305473
    145 C7         69.6681   61.3773   47.4564 Z7         2 LUT      0.069402
    146 C8         70.6106   61.9184   46.6902 Z8         2 LUT     -0.191631
    147 C9         71.1991   61.7024   45.3399 Z9         2 LUT      0.196698
    148 C10        72.1932   62.5972   44.9391 Y1         2 LUT     -0.208611
    149 C11        72.8437   62.7238   43.6621 Y2         2 LUT      0.030784
    150 C12        73.9866   63.4473   43.4383 Y3         2 LUT     -0.220316
    151 C13        74.8296   63.4996   42.2547 Y4         2 LUT      0.215937
    152 C14        76.0555   64.1522   42.4263 Y5         2 LUT     -0.185793
    153 C15        77.1406   64.3059   41.5486 Y6         2 LUT     -0.057835
    154 C16        69.4479   59.7520   49.8205 Y7         2 LUT     -0.405615
    155 C17        70.0279   61.7296   51.0149 Y7         2 LUT     -0.405615
    156 C18        67.7309   63.7505   47.2675 Y9         2 LUT     -0.369639
    157 C19        70.7074   60.4667   44.6654 W1         2 LUT     -0.333362
    158 C20        74.3455   63.0120   40.9515 W2         2 LUT     -0.323439
    159 C21        88.5801   66.1137   35.3964 Z1         2 LUT      0.406104
    160 C22        89.1803   65.5931   34.0588 Z2         2 LUT     -0.404965
    161 C23        89.2003   66.6119   32.8863 Z3         2 LUT      0.391255
    162 O23        89.9036   66.0637   31.7315 S1         2 LUT     -0.528210
    163 C24        87.8228   67.2838   32.7452 W6         2 LUT     -0.258361
    164 C25        86.9042   67.3755   33.7350 Z5         2 LUT      0.133546
    165 C26        87.0975   66.6024   34.9854 W8         2 LUT     -0.147008
    166 C27        86.2612   67.0577   36.2306 Z7         2 LUT      0.023843
    167 C28        85.1918   66.4679   36.7538 Z8         2 LUT     -0.216987
    168 C29        84.5531   66.7900   38.0210 Z9         2 LUT      0.206524
    169 C30        83.4468   66.0745   38.4036 Y1         2 LUT     -0.215556
    170 C31        82.5678   66.1834   39.5460 Y2         2 LUT      0.025142
    171 C32        81.3832   65.6082   39.6948 Y3         2 LUT     -0.212209
    172 C33        80.5631   65.6144   40.8468 Y4         2 LUT      0.240937
    173 C34        79.4128   64.9508   40.7724 Y5         2 LUT     -0.218862
    174 C35        78.3640   64.8550   41.8081 Y6         2 LUT     -0.023547
    175 C36        89.4597   67.2445   36.0008 Y7         2 LUT     -0.393485
    176 C37        88.5085   64.8379   36.3068 Y7         2 LUT     -0.393485
    177 C38        85.5247   67.8637   33.5036 Y9         2 LUT     -0.387526
    178 C39        84.9875   67.9796   38.9037 W1         2 LUT     -0.322618
    179 C40        80.9445   66.6113   42.0136 W2         2 LUT     -0.358472
    180 H403       80.3574   66.5142   42.9274 R7         2 LUT      0.097720
    181 H402       81.9640   66.5775   42.3709 R7         2 LUT      0.097720
    182 H401       80.7207   67.6647   41.7837 R7         2 LUT      0.097720
    183 H393       84.0988   68.2538   39.4850 R4         2 LUT      0.082505
    184 H392       85.8405   67.7280   39.5893 R4         2 LUT      0.082505
    185 H391       85.1532   68.8839   38.3343 R4         2 LUT      0.082505
    186 H383       85.1842   68.6456   34.2141 R1         2 LUT      0.104030
    187 H382       85.4375   68.3452   32.5774 R1         2 LUT      0.104030
    188 H381       84.9114   66.9805   33.3808 R1         2 LUT      0.104030
    189 H373       89.4307   64.2834   36.4174 T4         2 LUT      0.089537
    190 H372       88.2325   65.1729   37.3021 T4         2 LUT      0.089537
    191 H371       87.7178   64.1369   36.0281 T4         2 LUT      0.089537
    192 H363       88.9815   67.5459   36.9592 T4         2 LUT      0.089537
    193 H362       90.4368   66.8867   36.2349 T4         2 LUT      0.089537
    194 H361       89.5670   68.0746   35.3430 T4         2 LUT      0.089537
    195 H222       90.0835   65.0514   34.1922 U2         2 LUT      0.127376
    196 H221       88.6081   64.7327   33.7303 U2         2 LUT      0.127376
    197 H203       74.0525   61.9583   40.8146 R7         2 LUT      0.087068
    198 H202       73.4617   63.6643   40.8271 R7         2 LUT      0.087068
    199 H201       74.9763   63.3104   40.1016 R7         2 LUT      0.087068
    200 H193       71.1338   60.2244   43.6231 R4         2 LUT      0.089716
    201 H192       70.8794   59.6689   45.3480 R4         2 LUT      0.089716
    202 H191       69.6756   60.4609   44.4424 R4         2 LUT      0.089716
    203 H183       68.3312   64.6212   47.0487 R1         2 LUT      0.094572
    204 H182       67.8797   63.2142   46.3078 R1         2 LUT      0.094572
    205 H181       66.6511   63.9936   47.3463 R1         2 LUT      0.094572
    206 H173       71.0848   61.6674   50.7902 T4         2 LUT      0.093752
    207 H172       69.7993   62.7325   51.2418 T4         2 LUT      0.093752
    208 H171       69.7234   61.2458   51.9539 T4         2 LUT      0.093752
    209 H163       68.6883   59.2253   49.1604 T4         2 LUT      0.093752
    210 H162       70.3851   59.6989   49.2827 T4         2 LUT      0.093752
    211 H161       69.5028   59.2375   50.7291 T4         2 LUT      0.093752
    212 HO3        66.9954   62.6002   52.8887 Q1         2 LUT      0.300121
    213 H8         70.9178   62.8573   47.0661 U7         2 LUT      0.080784
    214 H7         69.0770   60.5550   47.0844 U6         2 LUT      0.042190
    215 H42        66.7642   64.3367   49.5431 U5         2 LUT      0.145166
    216 H41        68.3694   64.4031   50.1244 U5         2 LUT      0.145166
    217 H35        78.3980   65.2916   42.8869 T3         2 LUT      0.077919
    218 H34        79.0773   64.3969   39.8400 T2         2 LUT      0.073626
    219 H32        81.0750   64.9787   38.8390 T1         2 LUT      0.092510
    220 H31        82.8890   66.7305   40.3771 U9         2 LUT      0.070048
    221 H30        83.0340   65.4041   37.6322 U8         2 LUT      0.085442
    222 H3         66.0281   62.5513   50.8026 U3         2 LUT     -0.031596
    223 H28        84.8169   65.6904   36.1444 U7         2 LUT      0.084728
    224 H27        86.6285   67.9354   36.8157 U6         2 LUT      0.087291
    225 H26        86.5081   65.6565   34.6560 Q6         2 LUT      0.075325
    226 H24        87.5734   67.8628   31.8641 Q5         2 LUT      0.094482
    227 H23        89.8643   67.4987   33.2593 U3         2 LUT     -0.024869
    228 H22        67.0127   60.9424   49.7821 U2         2 LUT      0.127376
    229 H21        67.4903   60.5959   51.3780 U2         2 LUT      0.127376
    230 H15        77.0770   63.8827   40.5206 T3         2 LUT      0.093200
    231 H14        76.2695   64.3467   43.4869 T2         2 LUT      0.068865
    232 H12        74.3973   63.8591   44.3644 T1         2 LUT      0.095507
    233 H11        72.4531   62.0373   42.9236 U9         2 LUT      0.068930
    234 H10        72.4675   63.4213   45.5881 U8         2 LUT      0.083911
    235 H1         89.3068   65.6966   31.1107 Q1         2 LUT      0.297311
@<TRIPOS>BOND
    1     6     1 1
    2     7     2 1
    3     8     3 1
    4     9     4 1
    5    11     4 1
    6    12     6 1
    7    13     9 1
    8    16     9 1
    9    25     5 1
   10    25    16 1
   11    26    10 1
   12    26    17 1
   13    27    18 1
   14    28    14 1
   15    28    19 1
   16    29    12 1
   17    30    13 1
   18    31    24 1
   19    32     1 1
   20    32    25 1
   21    33    21 1
   22    33    26 1
   23    34    22 1
   24    34    27 1
   25    35    23 1
   26    35    28 1
   27    36    12 1
   28    36    24 1
   29    37    13 1
   30    37    15 1
   31    38    31 1
   32    39    20 1
   33    39    32 1
   34    40     2 1
   35    40    33 1
   36    41     3 1
   37    41    34 1
   38    42     4 1
   39    42    35 1
   40    43    38 1
   41    44     5 1
   42    44    17 1
   43    44    39 1
   44    45    10 1
   45    45    18 1
   46    45    40 1
   47    46    19 1
   48    46    41 1
   49    47    14 1
   50    47    16 1
   51    47    42 1
   52    48    38 1
   53    49    48 1
   54    50    49 1
   55    51    50 1
   56    52    51 1
   57    53    51 1
   58    54    53 1
   59    55    54 1
   60    56    55 1
   61    57    56 1
   62    58    56 1
   63    59    58 1
   64    60    59 1
   65    61    60 1
   66    62    61 1
   67    63    61 1
   68    64    27 1
   69    64    46 1
   70    65     5 1
   71    65    10 1
   72    65    64 1
   73    65    14 1
   74    66    23 1
   75    67    23 1
   76    68    23 1
   77    69    22 1
   78    70    22 1
   79    71    22 1
   80    72    21 1
   81    73    21 1
   82    74    21 1
   83    75    20 1
   84    76    20 1
   85    77    20 1
   86    78    15 1
   87    79    15 1
   88    80    15 1
   89    81     8 1
   90    82     8 1
   91    83     8 1
   92    84     7 1
   93    85     7 1
   94    86     6 1
   95    87     6 1
   96    88     3 1
   97    89     3 1
   98    90     1 1
   99    91     1 1
  100    92    63 1
  101    93    63 1
  102    94    63 1
  103    95    62 1
  104    96    62 1
  105    97    62 1
  106    98    60 1
  107    99    60 1
  108   100    59 1
  109   101    59 1
  110   102    58 1
  111   103    58 1
  112   104    57 1
  113   105    57 1
  114   106    57 1
  115   107    55 1
  116   108    55 1
  117   109    54 1
  118   110    54 1
  119   111    53 1
  120   112    53 1
  121   113    19 1
  122   114    18 1
  123   115    17 1
  124   116     9 1
  125   117     2 1
  126   118    52 1
  127   119    52 1
  128   120    52 1
  129   121    51 1
  130   122    50 1
  131   123    50 1
  132   124    49 1
  133   125    49 1
  134   126    48 1
  135   127    48 1
  136   128    43 1
  137   129    43 1
  138   130    43 1
  139   131    39 1
  140   132    32 1
  141   133    31 1
  142   134    61 1
  143   135    56 1
  144   136    24 1
  145   137    24 1
  146   139   138 1
  147   140   139 1
  148   141   140 1
  149   142   140 1
  150   143   142 1
  151   144   138 1
  152   144   143 1
  153   145   144 1
  154   146   145 1
  155   147   146 1
  156   148   147 1
  157   149   148 1
  158   150   149 1
  159   151   150 1
  160   152   151 1
  161   153   152 1
  162   154   138 1
  163   155   138 1
  164   156   143 1
  165   157   147 1
  166   158   151 1
  167   160   159 1
  168   161   160 1
  169   162   161 1
  170   163   161 1
  171   164   163 1
  172   165   159 1
  173   165   164 1
  174   166   165 1
  175   167   166 1
  176   168   167 1
  177   169   168 1
  178   170   169 1
  179   171   170 1
  180   172   171 1
  181   173   172 1
  182   174   153 1
  183   174   173 1
  184   175   159 1
  185   176   159 1
  186   177   164 1
  187   178   168 1
  188   179   172 1
  189   180   179 1
  190   181   179 1
  191   182   179 1
  192   183   178 1
  193   184   178 1
  194   185   178 1
  195   186   177 1
  196   187   177 1
  197   188   177 1
  198   189   176 1
  199   190   176 1
  200   191   176 1
  201   192   175 1
  202   193   175 1
  203   194   175 1
  204   195   160 1
  205   196   160 1
  206   197   158 1
  207   198   158 1
  208   199   158 1
  209   200   157 1
  210   201   157 1
  211   202   157 1
  212   203   156 1
  213   204   156 1
  214   205   156 1
  215   206   155 1
  216   207   155 1
  217   208   155 1
  218   209   154 1
  219   210   154 1
  220   211   154 1
  221   212   141 1
  222   213   146 1
  223   214   145 1
  224   215   142 1
  225   216   142 1
  226   217   174 1
  227   218   173 1
  228   219   171 1
  229   220   170 1
  230   221   169 1
  231   222   140 1
  232   223   167 1
  233   224   166 1
  234   225   165 1
  235   226   163 1
  236   227   161 1
  237   228   139 1
  238   229   139 1
  239   230   153 1
  240   231   152 1
  241   232   150 1
  242   233   149 1
  243   234   148 1
  244   235   162 1
  245   65    153 1
  246   65    174 1
@<TRIPOS>SUBSTRUCTURE
      1 CLA               1 ****               0 ****  **** 
      2 LUT             138 ****               0 ****  **** 
