@<TRIPOS>MOLECULE
Cpptraj generated mol2 file.
  235   246     2     0     0
SMALL
USER_CHARGES


@<TRIPOS>ATOM
      1 CAA        78.5516   57.0928   35.4653 a2         1 CLA     -0.055900
      2 CAB        78.3716   61.3554   44.1675 c8         1 CLA     -0.148500
      3 CAC        71.4309   57.0301   43.7254 a2         1 CLA     -0.012600
      4 CAD        74.1850   54.9431   36.4121 ck         1 CLA      0.398800
      5 NA         77.4042   57.7439   38.7585 ns         1 CLA     -0.225500
      6 CBA        79.8735   56.7199   34.7098 a2         1 CLA     -0.135000
      7 CBB        78.2931   60.6437   45.3270 c0         1 CLA     -0.395200
      8 CBC        71.5653   55.4529   43.7562 a3         1 CLA     -0.037700
      9 CBD        75.7012   55.3175   36.2294 a1         1 CLA     -0.053900
     10 NB         77.2821   59.2823   41.3169 nm         1 CLA     -0.295700
     11 OBD        73.6099   54.2077   35.5342 o2         1 CLA     -0.494600
     12 CGA        80.0310   55.2174   34.3407 c4         1 CLA      0.827000
     13 CGD        76.5590   54.0852   36.0472 c4         1 CLA      0.655300
     14 ND         74.5966   56.8669   39.2720 nm         1 CLA     -0.291600
     15 CED        76.7606   51.6788   36.7627 a3         1 CLA      0.005400
     16 CHA        76.0289   56.2040   37.3828 cs         1 CLA     -0.123800
     17 CHB        79.1859   59.0759   39.7922 aa         1 CLA     -0.291900
     18 CHC        75.8411   59.6008   43.3402 aa         1 CLA     -0.090400
     19 CHD        72.6421   56.8954   40.7797 aa         1 CLA     -0.052000
     20 CMA        80.7237   56.7576   38.5554 a3         1 CLA     -0.230700
     21 CMB        80.5399   61.2484   41.7132 a3         1 CLA     -0.180800
     22 CMC        73.6488   59.0023   45.3982 a3         1 CLA     -0.134000
     23 CMD        71.3709   55.2092   38.4166 a3         1 CLA     -0.141100
     24 C1         80.7194   53.0485   35.1130 a2         1 CLA      0.023000
     25 C1A        77.2588   56.8490   37.6751 ac         1 CLA     -0.015100
     26 C1B        78.5720   59.5763   40.9433 cr         1 CLA      0.054700
     27 C1C        74.7410   58.7875   42.9912 cn         1 CLA     -0.005600
     28 C1D        73.2930   56.5318   39.5448 ap         1 CLA     -0.047300
     29 O1A        79.7674   54.7220   33.2624 o2         1 CLA     -0.610800
     30 O1D        77.4120   53.9462   35.1547 o2         1 CLA     -0.558200
     31 C2         81.4213   52.6675   36.3910 c8         1 CLA     -0.325100
     32 C2A        78.5769   56.6664   36.9702 a1         1 CLA      0.098600
     33 C2B        79.1231   60.5373   41.8627 cb         1 CLA      0.088500
     34 C2C        73.6471   58.5249   43.9495 cb         1 CLA      0.053700
     35 C2D        72.7734   55.7205   38.5256 cb         1 CLA      0.058900
     36 O2A        80.5071   54.4579   35.3903 o1         1 CLA     -0.437200
     37 O2D        76.3142   53.0630   36.9437 o1         1 CLA     -0.357600
     38 C3         82.6894   52.3611   36.5992 c5         1 CLA      0.031200
     39 C3A        79.5920   57.4829   37.8490 a1         1 CLA      0.166800
     40 C3B        78.1924   60.6317   42.8505 cb         1 CLA      0.035000
     41 C3C        72.7235   57.7240   43.1743 cb         1 CLA     -0.089900
     42 C3D        73.7905   55.5567   37.6657 cb         1 CLA     -0.035900
     43 C4         83.2089   50.9069   36.5126 a3         1 CLA     -0.053300
     44 C4A        78.6565   58.1991   38.8894 ac         1 CLA      0.001800
     45 C4B        77.0692   59.7667   42.5695 cn         1 CLA     -0.020900
     46 C4C        73.2437   57.6223   41.8299 cr         1 CLA     -0.044400
     47 C4D        74.9193   56.2067   38.1832 c6         1 CLA     -0.046000
     48 C5         83.7565   53.4475   36.9339 a2         1 CLA     -0.070400
     49 C6         83.9098   53.5538   38.4933 a2         1 CLA      0.043900
     50 C7         85.0737   54.5936   38.8336 a2         1 CLA     -0.150000
     51 C8         84.4599   56.1001   38.9802 a1         1 CLA      0.064200
     52 C9         85.2246   57.0787   38.0301 a3         1 CLA     -0.259300
     53 C10        84.4049   56.5553   40.4561 a2         1 CLA     -0.071900
     54 C11        83.7586   55.5811   41.4719 a2         1 CLA      0.014500
     55 C12        83.3682   56.2613   42.7855 a2         1 CLA     -0.112100
     56 C13        84.5319   56.8513   43.6673 a1         1 CLA      0.089200
     57 C14        84.3374   56.5125   45.2091 a3         1 CLA     -0.239100
     58 C15        84.7405   58.3812   43.5411 a2         1 CLA     -0.102200
     59 C16        83.6180   59.2428   43.8791 a2         1 CLA      0.023900
     60 C17        83.8925   59.9537   45.2313 a2         1 CLA     -0.105700
     61 C18        82.8627   60.9870   45.6815 a1         1 CLA      0.206800
     62 C19        81.5190   60.3383   45.9314 a3         1 CLA     -0.280100
     63 C20        83.3777   61.8205   46.8725 a3         1 CLA     -0.280100
     64 NC         74.4898   58.2205   41.7590 nx         1 CLA     -0.309200
     65 MG         75.8360   58.2103   40.1437 mg         1 CLA      0.895000
     66 HMD3       70.6290   56.0720   38.3042 dc         1 CLA      0.064300
     67 HMD2       71.3684   54.5549   37.5590 dc         1 CLA      0.064300
     68 HMD1       71.1181   54.7431   39.3973 dc         1 CLA      0.064300
     69 HMC3       74.4547   58.4478   45.9486 dc         1 CLA      0.052100
     70 HMC2       73.8086   60.0659   45.3323 dc         1 CLA      0.052100
     71 HMC1       72.7264   58.8289   45.9456 dc         1 CLA      0.052100
     72 HMB3       80.8038   61.0821   42.7893 dc         1 CLA      0.063600
     73 HMB2       81.2008   60.6133   41.1601 dc         1 CLA      0.063600
     74 HMB1       80.5086   62.2823   41.4800 dc         1 CLA      0.063600
     75 HMA3       80.4785   55.9255   39.2170 dc         1 CLA      0.058300
     76 HMA2       81.2882   56.2368   37.7555 dc         1 CLA      0.058300
     77 HMA1       81.3334   57.4295   39.1611 dc         1 CLA      0.058300
     78 HED3       77.3731   51.4380   37.5850 dc         1 CLA      0.079300
     79 HED2       75.8315   51.0206   36.6825 dc         1 CLA      0.079300
     80 HED1       77.3647   51.5755   35.9405 dc         1 CLA      0.079300
     81 HBC3       70.6535   54.8690   43.9236 dc         1 CLA      0.016300
     82 HBC2       71.9405   55.1514   42.7467 dc         1 CLA      0.016300
     83 HBC1       72.2403   55.2895   44.5696 dc         1 CLA      0.016300
     84 HBB2       78.6003   61.2065   46.2220 da         1 CLA      0.183000
     85 HBB1       78.1908   59.5433   45.3885 da         1 CLA      0.183000
     86 HBA2       79.6294   57.2765   33.7966 dc         1 CLA      0.029400
     87 HBA1       80.8085   57.0930   35.1633 dc         1 CLA      0.029400
     88 HAC2       71.0461   57.3118   44.7339 dc         1 CLA      0.029300
     89 HAC1       70.5675   57.1973   43.0394 dc         1 CLA      0.029300
     90 HAA2       77.7294   56.6244   34.9620 dc         1 CLA      0.028700
     91 HAA1       78.2840   58.1517   35.4579 dc         1 CLA      0.028700
     92 H203       84.2539   62.3059   46.5300 dc         1 CLA      0.065600
     93 H202       82.7283   62.5931   47.1546 dc         1 CLA      0.065600
     94 H201       83.7152   61.2026   47.6285 dc         1 CLA      0.065600
     95 H193       81.4673   59.6485   46.7787 dc         1 CLA      0.065600
     96 H192       80.7567   61.0621   46.1997 dc         1 CLA      0.065600
     97 H191       81.0792   59.9369   44.9868 dc         1 CLA      0.065600
     98 H172       84.0715   59.3088   46.0104 dc         1 CLA      0.027600
     99 H171       84.7269   60.5226   45.0262 dc         1 CLA      0.027600
    100 H162       83.4984   59.9377   43.1308 dc         1 CLA      0.002900
    101 H161       82.7578   58.7393   44.0216 dc         1 CLA      0.002900
    102 H152       85.5821   58.6875   44.1921 dc         1 CLA      0.029100
    103 H151       85.0962   58.6298   42.4763 dc         1 CLA      0.029100
    104 H143       84.3735   55.3804   45.2584 dc         1 CLA      0.063600
    105 H142       85.1379   56.8216   45.8195 dc         1 CLA      0.063600
    106 H141       83.4535   56.9719   45.6205 dc         1 CLA      0.063600
    107 H122       82.6254   57.0188   42.5087 dc         1 CLA      0.032500
    108 H121       82.8361   55.4602   43.4016 dc         1 CLA      0.032500
    109 H112       82.9725   55.0412   40.9866 dc         1 CLA      0.006600
    110 H111       84.4018   54.7238   41.6818 dc         1 CLA      0.006600
    111 H102       85.4290   56.6353   40.8147 dc         1 CLA      0.024100
    112 H101       83.8028   57.4681   40.5473 dc         1 CLA      0.024100
    113 HHD        71.5725   56.6765   40.9593 da         1 CLA      0.174300
    114 HHC        75.7008   60.0688   44.3735 da         1 CLA      0.136800
    115 HHB        80.2379   59.3038   39.7861 da         1 CLA      0.138300
    116 HBD        75.7566   55.7998   35.1898 dc         1 CLA      0.107700
    117 HAB        78.6155   62.4287   44.3290 da         1 CLA      0.155200
    118 H93        85.1278   56.7066   36.9724 dc         1 CLA      0.069500
    119 H92        84.8969   58.1017   38.1028 dc         1 CLA      0.069500
    120 H91        86.2552   57.1632   38.3631 dc         1 CLA      0.069500
    121 H8         83.4252   56.1441   38.5624 dc         1 CLA      0.029300
    122 H72        85.4735   54.2023   39.7126 dc         1 CLA      0.044400
    123 H71        85.8857   54.5357   38.0941 dc         1 CLA      0.044400
    124 H62        82.9996   53.9029   38.9534 dc         1 CLA      0.015600
    125 H61        84.0366   52.6393   38.9279 dc         1 CLA      0.015600
    126 H52        84.6989   53.2525   36.4955 dc         1 CLA      0.033200
    127 H51        83.4128   54.4166   36.5484 dc         1 CLA      0.033200
    128 H43        83.9447   50.7791   35.7205 dc         1 CLA      0.037000
    129 H42        83.7722   50.6072   37.4399 dc         1 CLA      0.037000
    130 H41        82.3891   50.1900   36.3509 dc         1 CLA      0.037000
    131 H3A        80.0519   58.2502   37.2303 dc         1 CLA      0.041100
    132 H2A        78.9097   55.6568   36.9194 dc         1 CLA      0.083100
    133 H2         80.9134   52.6576   37.3227 da         1 CLA      0.180900
    134 H18        82.7281   61.6191   44.8211 dc         1 CLA     -0.003900
    135 H13        85.4933   56.4703   43.2993 dc         1 CLA      0.019700
    136 H12        79.7304   52.5486   35.0388 dc         1 CLA      0.120400
    137 H11        81.3501   52.9504   34.2187 dc         1 CLA      0.120400
    138 C1         68.2086   60.4743   50.7728 Z1         2 LUT      0.509236
    139 C2         66.9180   60.3960   51.7669 Z2         2 LUT     -0.434695
    140 C3         66.1142   61.7466   51.8507 Z3         2 LUT      0.437453
    141 O3         66.3790   62.4353   52.9767 S1         2 LUT     -0.547129
    142 C4         66.3840   62.6903   50.6184 Z4         2 LUT     -0.468603
    143 C5         66.9780   62.0906   49.3945 Z5         2 LUT      0.279246
    144 C6         67.8617   61.1221   49.4731 Z6         2 LUT     -0.305473
    145 C7         68.4238   60.6248   48.2675 Z7         2 LUT      0.069402
    146 C8         69.3035   61.2458   47.6211 Z8         2 LUT     -0.191631
    147 C9         69.6692   61.0285   46.2907 Z9         2 LUT      0.196698
    148 C10        70.6562   61.8381   45.7345 Y1         2 LUT     -0.208611
    149 C11        71.2388   61.7885   44.3539 Y2         2 LUT      0.030784
    150 C12        72.4708   62.3410   44.1651 Y3         2 LUT     -0.220316
    151 C13        73.3418   62.2787   42.9897 Y4         2 LUT      0.215937
    152 C14        74.5640   62.9590   42.8403 Y5         2 LUT     -0.185793
    153 C15        75.5543   63.1285   41.8254 Y6         2 LUT     -0.057835
    154 C16        68.9183   58.9739   50.7829 Y7         2 LUT     -0.405615
    155 C17        69.3590   61.3468   51.3855 Y7         2 LUT     -0.405615
    156 C18        66.5668   62.7771   48.1425 Y9         2 LUT     -0.369639
    157 C19        69.1197   59.8668   45.4690 W1         2 LUT     -0.333362
    158 C20        72.8097   61.4736   41.7706 W2         2 LUT     -0.323439
    159 C21        87.0423   64.1912   35.5369 Z1         2 LUT      0.406104
    160 C22        87.7151   63.8830   34.2111 Z2         2 LUT     -0.404965
    161 C23        87.6978   65.0337   33.2012 Z3         2 LUT      0.391255
    162 O23        88.4260   64.8392   31.9726 S1         2 LUT     -0.528210
    163 C24        86.3789   65.6479   33.0698 W6         2 LUT     -0.258361
    164 C25        85.3460   65.4764   33.9491 Z5         2 LUT      0.133546
    165 C26        85.5172   64.5518   35.2496 W8         2 LUT     -0.147008
    166 C27        84.8189   65.0481   36.4712 Z7         2 LUT      0.023843
    167 C28        83.5117   64.8733   36.8899 Z8         2 LUT     -0.216987
    168 C29        82.8501   65.3229   38.1192 Z9         2 LUT      0.206524
    169 C30        81.5884   64.9550   38.4503 Y1         2 LUT     -0.215556
    170 C31        80.7752   65.2898   39.5943 Y2         2 LUT      0.025142
    171 C32        79.6460   64.6884   39.9690 Y3         2 LUT     -0.212209
    172 C33        78.8032   64.7034   41.1325 Y4         2 LUT      0.240937
    173 C34        77.6939   63.8912   41.1323 Y5         2 LUT     -0.218862
    174 C35        76.7047   63.7858   42.1518 Y6         2 LUT     -0.023547
    175 C36        87.8783   65.3552   36.1987 Y7         2 LUT     -0.393485
    176 C37        87.1956   62.9402   36.4093 Y7         2 LUT     -0.393485
    177 C38        83.9012   65.9486   33.6729 Y9         2 LUT     -0.387526
    178 C39        83.6393   66.1773   39.1169 W1         2 LUT     -0.322618
    179 C40        79.3444   65.6339   42.2214 W2         2 LUT     -0.358472
    180 H403       79.6536   66.5822   41.8587 R7         2 LUT      0.097720
    181 H402       78.7689   65.7701   43.1135 R7         2 LUT      0.097720
    182 H401       80.2226   65.1960   42.6119 R7         2 LUT      0.097720
    183 H393       83.0305   66.6326   39.8813 R4         2 LUT      0.082505
    184 H392       84.4968   65.5705   39.5428 R4         2 LUT      0.082505
    185 H391       83.9843   67.0469   38.5381 R4         2 LUT      0.082505
    186 H383       83.4958   65.7798   32.6374 R1         2 LUT      0.104030
    187 H382       83.1252   65.3718   34.2321 R1         2 LUT      0.104030
    188 H381       83.7668   67.0123   34.0267 R1         2 LUT      0.104030
    189 H373       88.2045   62.7404   36.7212 T4         2 LUT      0.089537
    190 H372       86.5922   62.8657   37.2621 T4         2 LUT      0.089537
    191 H371       86.9376   61.9461   35.9138 T4         2 LUT      0.089537
    192 H363       87.7207   65.2103   37.3078 T4         2 LUT      0.089537
    193 H362       88.9369   65.5099   35.8763 T4         2 LUT      0.089537
    194 H361       87.3979   66.3469   35.9715 T4         2 LUT      0.089537
    195 H222       88.7622   63.6201   34.4462 U2         2 LUT      0.127376
    196 H221       87.1917   63.0673   33.7039 U2         2 LUT      0.127376
    197 H203       72.7770   60.4592   42.0284 R7         2 LUT      0.087068
    198 H202       71.9273   61.8853   41.4034 R7         2 LUT      0.087068
    199 H201       73.4269   61.5223   40.8731 R7         2 LUT      0.087068
    200 H193       69.4378   59.7577   44.4274 R4         2 LUT      0.089716
    201 H192       69.2513   58.9046   46.0066 R4         2 LUT      0.089716
    202 H191       68.0708   60.0363   45.3636 R4         2 LUT      0.089716
    203 H183       67.2929   63.5795   47.8591 R1         2 LUT      0.094572
    204 H182       66.5528   61.9973   47.3137 R1         2 LUT      0.094572
    205 H181       65.4750   63.2007   48.1961 R1         2 LUT      0.094572
    206 H173       70.2807   61.2907   50.8013 T4         2 LUT      0.093752
    207 H172       69.0962   62.4427   51.5418 T4         2 LUT      0.093752
    208 H171       69.6180   60.8198   52.3417 T4         2 LUT      0.093752
    209 H163       69.0915   58.5693   51.7480 T4         2 LUT      0.093752
    210 H162       68.1963   58.2678   50.2898 T4         2 LUT      0.093752
    211 H161       69.7089   58.9500   50.1183 T4         2 LUT      0.093752
    212 HO3        66.0588   61.9420   53.7327 Q1         2 LUT      0.300121
    213 H8         69.8600   62.0321   48.0856 U7         2 LUT      0.080784
    214 H7         67.8460   59.8585   47.8100 U6         2 LUT      0.042190
    215 H42        65.5212   63.3427   50.4145 U5         2 LUT      0.145166
    216 H41        67.2022   63.3778   50.9397 U5         2 LUT      0.145166
    217 H35        76.7933   64.2674   43.1316 T3         2 LUT      0.077919
    218 H34        77.5117   63.3731   40.1355 T2         2 LUT      0.073626
    219 H32        79.2456   63.9587   39.2867 T1         2 LUT      0.092510
    220 H31        81.1928   65.9938   40.2700 U9         2 LUT      0.070048
    221 H30        81.1648   64.2003   37.7504 U8         2 LUT      0.085442
    222 H3         65.0388   61.3812   51.8367 U3         2 LUT     -0.031596
    223 H28        82.7848   64.5054   36.2037 U7         2 LUT      0.084728
    224 H27        85.4948   65.4714   37.2392 U6         2 LUT      0.087291
    225 H26        85.0480   63.5779   35.0128 Q6         2 LUT      0.075325
    226 H24        86.1937   66.2191   32.1390 Q5         2 LUT      0.094482
    227 H23        88.4818   65.7404   33.6005 U3         2 LUT     -0.024869
    228 H22        66.1824   59.7760   51.2656 U2         2 LUT      0.127376
    229 H21        66.9954   59.9671   52.7543 U2         2 LUT      0.127376
    230 H15        75.2399   62.6908   40.8837 T3         2 LUT      0.093200
    231 H14        74.7284   63.4471   43.7869 T2         2 LUT      0.068865
    232 H12        72.9505   62.8269   45.0041 T1         2 LUT      0.095507
    233 H11        70.8347   61.2355   43.5585 U9         2 LUT      0.068930
    234 H10        71.1289   62.6014   46.4942 U8         2 LUT      0.083911
    235 H1         88.1391   64.0828   31.4801 Q1         2 LUT      0.297311
@<TRIPOS>BOND
    1     6     1 1
    2     7     2 1
    3     8     3 1
    4     9     4 1
    5    11     4 1
    6    12     6 1
    7    13     9 1
    8    16     9 1
    9    25     5 1
   10    25    16 1
   11    26    10 1
   12    26    17 1
   13    27    18 1
   14    28    14 1
   15    28    19 1
   16    29    12 1
   17    30    13 1
   18    31    24 1
   19    32     1 1
   20    32    25 1
   21    33    21 1
   22    33    26 1
   23    34    22 1
   24    34    27 1
   25    35    23 1
   26    35    28 1
   27    36    12 1
   28    36    24 1
   29    37    13 1
   30    37    15 1
   31    38    31 1
   32    39    20 1
   33    39    32 1
   34    40     2 1
   35    40    33 1
   36    41     3 1
   37    41    34 1
   38    42     4 1
   39    42    35 1
   40    43    38 1
   41    44     5 1
   42    44    17 1
   43    44    39 1
   44    45    10 1
   45    45    18 1
   46    45    40 1
   47    46    19 1
   48    46    41 1
   49    47    14 1
   50    47    16 1
   51    47    42 1
   52    48    38 1
   53    49    48 1
   54    50    49 1
   55    51    50 1
   56    52    51 1
   57    53    51 1
   58    54    53 1
   59    55    54 1
   60    56    55 1
   61    57    56 1
   62    58    56 1
   63    59    58 1
   64    60    59 1
   65    61    60 1
   66    62    61 1
   67    63    61 1
   68    64    27 1
   69    64    46 1
   70    65     5 1
   71    65    10 1
   72    65    64 1
   73    65    14 1
   74    66    23 1
   75    67    23 1
   76    68    23 1
   77    69    22 1
   78    70    22 1
   79    71    22 1
   80    72    21 1
   81    73    21 1
   82    74    21 1
   83    75    20 1
   84    76    20 1
   85    77    20 1
   86    78    15 1
   87    79    15 1
   88    80    15 1
   89    81     8 1
   90    82     8 1
   91    83     8 1
   92    84     7 1
   93    85     7 1
   94    86     6 1
   95    87     6 1
   96    88     3 1
   97    89     3 1
   98    90     1 1
   99    91     1 1
  100    92    63 1
  101    93    63 1
  102    94    63 1
  103    95    62 1
  104    96    62 1
  105    97    62 1
  106    98    60 1
  107    99    60 1
  108   100    59 1
  109   101    59 1
  110   102    58 1
  111   103    58 1
  112   104    57 1
  113   105    57 1
  114   106    57 1
  115   107    55 1
  116   108    55 1
  117   109    54 1
  118   110    54 1
  119   111    53 1
  120   112    53 1
  121   113    19 1
  122   114    18 1
  123   115    17 1
  124   116     9 1
  125   117     2 1
  126   118    52 1
  127   119    52 1
  128   120    52 1
  129   121    51 1
  130   122    50 1
  131   123    50 1
  132   124    49 1
  133   125    49 1
  134   126    48 1
  135   127    48 1
  136   128    43 1
  137   129    43 1
  138   130    43 1
  139   131    39 1
  140   132    32 1
  141   133    31 1
  142   134    61 1
  143   135    56 1
  144   136    24 1
  145   137    24 1
  146   139   138 1
  147   140   139 1
  148   141   140 1
  149   142   140 1
  150   143   142 1
  151   144   138 1
  152   144   143 1
  153   145   144 1
  154   146   145 1
  155   147   146 1
  156   148   147 1
  157   149   148 1
  158   150   149 1
  159   151   150 1
  160   152   151 1
  161   153   152 1
  162   154   138 1
  163   155   138 1
  164   156   143 1
  165   157   147 1
  166   158   151 1
  167   160   159 1
  168   161   160 1
  169   162   161 1
  170   163   161 1
  171   164   163 1
  172   165   159 1
  173   165   164 1
  174   166   165 1
  175   167   166 1
  176   168   167 1
  177   169   168 1
  178   170   169 1
  179   171   170 1
  180   172   171 1
  181   173   172 1
  182   174   153 1
  183   174   173 1
  184   175   159 1
  185   176   159 1
  186   177   164 1
  187   178   168 1
  188   179   172 1
  189   180   179 1
  190   181   179 1
  191   182   179 1
  192   183   178 1
  193   184   178 1
  194   185   178 1
  195   186   177 1
  196   187   177 1
  197   188   177 1
  198   189   176 1
  199   190   176 1
  200   191   176 1
  201   192   175 1
  202   193   175 1
  203   194   175 1
  204   195   160 1
  205   196   160 1
  206   197   158 1
  207   198   158 1
  208   199   158 1
  209   200   157 1
  210   201   157 1
  211   202   157 1
  212   203   156 1
  213   204   156 1
  214   205   156 1
  215   206   155 1
  216   207   155 1
  217   208   155 1
  218   209   154 1
  219   210   154 1
  220   211   154 1
  221   212   141 1
  222   213   146 1
  223   214   145 1
  224   215   142 1
  225   216   142 1
  226   217   174 1
  227   218   173 1
  228   219   171 1
  229   220   170 1
  230   221   169 1
  231   222   140 1
  232   223   167 1
  233   224   166 1
  234   225   165 1
  235   226   163 1
  236   227   161 1
  237   228   139 1
  238   229   139 1
  239   230   153 1
  240   231   152 1
  241   232   150 1
  242   233   149 1
  243   234   148 1
  244   235   162 1
  245   65    153 1
  246   65    174 1
@<TRIPOS>SUBSTRUCTURE
      1 CLA               1 ****               0 ****  **** 
      2 LUT             138 ****               0 ****  **** 
