@<TRIPOS>MOLECULE
Cpptraj generated mol2 file.
  235   246     2     0     0
SMALL
USER_CHARGES


@<TRIPOS>ATOM
      1 CAA        78.5790   57.4917   34.9425 a2         1 CLA     -0.055900
      2 CAB        78.4270   61.5542   43.7579 c8         1 CLA     -0.148500
      3 CAC        71.5822   57.4755   43.3081 a2         1 CLA     -0.012600
      4 CAD        74.5469   54.8407   36.2265 ck         1 CLA      0.398800
      5 NA         77.5190   58.1796   38.2732 ns         1 CLA     -0.225500
      6 CBA        79.8239   57.4470   34.0913 a2         1 CLA     -0.135000
      7 CBB        79.5460   61.4754   44.5064 c0         1 CLA     -0.395200
      8 CBC        71.7636   55.9900   43.6762 a3         1 CLA     -0.037700
      9 CBD        75.9938   55.3890   35.9223 a1         1 CLA     -0.053900
     10 NB         77.3086   59.8061   40.7030 nm         1 CLA     -0.295700
     11 OBD        74.0235   53.9009   35.6029 o2         1 CLA     -0.494600
     12 CGA        80.5270   56.0707   33.9518 c4         1 CLA      0.827000
     13 CGD        77.0589   54.2799   35.9689 c4         1 CLA      0.655300
     14 ND         74.7658   57.1362   38.9227 nm         1 CLA     -0.291600
     15 CED        77.1994   51.8560   36.2061 a3         1 CLA      0.005400
     16 CHA        76.2840   56.4016   37.0395 cs         1 CLA     -0.123800
     17 CHB        79.3112   59.5989   39.2350 aa         1 CLA     -0.291900
     18 CHC        76.0501   60.0005   42.8267 aa         1 CLA     -0.090400
     19 CHD        72.9257   57.1034   40.5343 aa         1 CLA     -0.052000
     20 CMA        81.0619   57.5979   37.8025 a3         1 CLA     -0.230700
     21 CMB        80.6045   61.5139   41.3860 a3         1 CLA     -0.180800
     22 CMC        73.6185   59.5291   44.9145 a3         1 CLA     -0.134000
     23 CMD        71.5996   55.1874   38.2292 a3         1 CLA     -0.141100
     24 C1         82.3180   54.7708   34.8715 a2         1 CLA      0.023000
     25 C1A        77.4469   57.2217   37.3045 ac         1 CLA     -0.015100
     26 C1B        78.6259   60.0551   40.3635 cr         1 CLA      0.054700
     27 C1C        74.8806   59.2483   42.5731 cn         1 CLA     -0.005600
     28 C1D        73.5175   56.6762   39.2995 ap         1 CLA     -0.047300
     29 O1A        80.1074   55.0706   33.3430 o2         1 CLA     -0.610800
     30 O1D        78.1517   54.3642   35.4283 o2         1 CLA     -0.558200
     31 C2         81.5645   53.8956   35.8681 c8         1 CLA     -0.325100
     32 C2A        78.7695   57.2620   36.4683 a1         1 CLA      0.098600
     33 C2B        79.1934   60.9243   41.3741 cb         1 CLA      0.088500
     34 C2C        73.7684   59.0008   43.5485 cb         1 CLA      0.053700
     35 C2D        72.9803   55.7825   38.2814 cb         1 CLA      0.058900
     36 O2A        81.6670   56.0683   34.7262 o1         1 CLA     -0.437200
     37 O2D        76.5772   53.1175   36.5044 o1         1 CLA     -0.357600
     38 C3         82.2078   53.3307   36.9004 c5         1 CLA      0.031200
     39 C3A        79.7119   58.1649   37.2439 a1         1 CLA      0.166800
     40 C3B        78.3111   60.9373   42.4692 cb         1 CLA      0.035000
     41 C3C        72.9489   58.1102   42.8428 cb         1 CLA     -0.089900
     42 C3D        74.0492   55.5841   37.4163 cb         1 CLA     -0.035900
     43 C4         82.8971   52.0151   36.8349 a3         1 CLA     -0.053300
     44 C4A        78.8130   58.6993   38.3004 ac         1 CLA      0.001800
     45 C4B        77.1554   60.1836   41.9968 cn         1 CLA     -0.020900
     46 C4C        73.4999   57.8818   41.5242 cr         1 CLA     -0.044400
     47 C4D        75.0721   56.4457   37.8259 c6         1 CLA     -0.046000
     48 C5         82.2824   54.0178   38.2495 a2         1 CLA     -0.070400
     49 C6         83.5135   54.8243   38.4001 a2         1 CLA      0.043900
     50 C7         83.6581   55.4868   39.7966 a2         1 CLA     -0.150000
     51 C8         84.5390   56.7087   39.9051 a1         1 CLA      0.064200
     52 C9         85.8768   56.3862   39.3968 a3         1 CLA     -0.259300
     53 C10        84.6527   57.2740   41.3122 a2         1 CLA     -0.071900
     54 C11        83.3758   57.9641   41.8541 a2         1 CLA      0.014500
     55 C12        83.5489   59.0173   42.9739 a2         1 CLA     -0.112100
     56 C13        84.4293   58.5666   44.2252 a1         1 CLA      0.089200
     57 C14        83.7906   57.3263   44.9897 a3         1 CLA     -0.239100
     58 C15        84.6379   59.7421   45.1607 a2         1 CLA     -0.102200
     59 C16        83.4721   60.3801   45.9000 a2         1 CLA      0.023900
     60 C17        84.0518   61.6102   46.6958 a2         1 CLA     -0.105700
     61 C18        83.0086   62.4604   47.3404 a1         1 CLA      0.206800
     62 C19        82.6157   61.8393   48.6901 a3         1 CLA     -0.280100
     63 C20        83.4780   63.9696   47.6799 a3         1 CLA     -0.280100
     64 NC         74.6730   58.5460   41.4534 nx         1 CLA     -0.309200
     65 MG         75.9926   58.5015   39.7143 mg         1 CLA      0.895000
     66 HMD3       71.5694   54.1207   37.9433 dc         1 CLA      0.064300
     67 HMD2       71.1856   55.2094   39.2046 dc         1 CLA      0.064300
     68 HMD1       70.9976   55.7864   37.5350 dc         1 CLA      0.064300
     69 HMC3       73.4549   58.6086   45.5989 dc         1 CLA      0.052100
     70 HMC2       74.4530   60.0987   45.2988 dc         1 CLA      0.052100
     71 HMC1       72.6598   60.0867   44.8365 dc         1 CLA      0.052100
     72 HMB3       81.2536   60.7436   41.8414 dc         1 CLA      0.063600
     73 HMB2       80.9752   61.8301   40.4006 dc         1 CLA      0.063600
     74 HMB1       80.6538   62.4283   41.9395 dc         1 CLA      0.063600
     75 HMA3       80.8263   56.7570   38.4508 dc         1 CLA      0.058300
     76 HMA2       81.6880   57.2080   37.0436 dc         1 CLA      0.058300
     77 HMA1       81.5474   58.3566   38.3999 dc         1 CLA      0.058300
     78 HED3       78.2568   51.7692   36.5911 dc         1 CLA      0.079300
     79 HED2       76.6772   51.0161   36.7878 dc         1 CLA      0.079300
     80 HED1       77.2942   51.6313   35.0871 dc         1 CLA      0.079300
     81 HBC3       70.7309   55.5360   43.8881 dc         1 CLA      0.016300
     82 HBC2       72.2384   55.3805   42.8895 dc         1 CLA      0.016300
     83 HBC1       72.3043   56.0042   44.6029 dc         1 CLA      0.016300
     84 HBB2       79.5607   61.7580   45.5983 da         1 CLA      0.183000
     85 HBB1       80.4565   60.9541   44.1676 da         1 CLA      0.183000
     86 HBA2       79.4792   57.8674   33.2117 dc         1 CLA      0.029400
     87 HBA1       80.5202   58.2413   34.3892 dc         1 CLA      0.029400
     88 HAC2       71.1955   58.0361   44.1620 dc         1 CLA      0.029300
     89 HAC1       70.7925   57.5850   42.4817 dc         1 CLA      0.029300
     90 HAA2       77.8550   56.7820   34.5643 dc         1 CLA      0.028700
     91 HAA1       78.1688   58.4876   34.7629 dc         1 CLA      0.028700
     92 H203       84.3618   64.0336   48.2557 dc         1 CLA      0.065600
     93 H202       83.6812   64.3862   46.7312 dc         1 CLA      0.065600
     94 H201       82.7727   64.6391   48.1209 dc         1 CLA      0.065600
     95 H193       82.1787   60.8995   48.6004 dc         1 CLA      0.065600
     96 H192       83.4480   61.8554   49.3750 dc         1 CLA      0.065600
     97 H191       81.8534   62.5935   49.0134 dc         1 CLA      0.065600
     98 H172       84.8419   61.4442   47.4177 dc         1 CLA      0.027600
     99 H171       84.4088   62.2513   45.9170 dc         1 CLA      0.027600
    100 H162       82.7835   60.7107   45.1604 dc         1 CLA      0.002900
    101 H161       83.0157   59.6388   46.6133 dc         1 CLA      0.002900
    102 H152       85.3526   59.3558   45.9007 dc         1 CLA      0.029100
    103 H151       85.1682   60.4520   44.5064 dc         1 CLA      0.029100
    104 H143       84.3044   57.1556   45.9688 dc         1 CLA      0.063600
    105 H142       82.7002   57.3880   45.2371 dc         1 CLA      0.063600
    106 H141       83.9397   56.4303   44.3040 dc         1 CLA      0.063600
    107 H122       84.1482   59.7568   42.4533 dc         1 CLA      0.032500
    108 H121       82.6382   59.3980   43.3539 dc         1 CLA      0.032500
    109 H112       82.8934   58.5167   40.9900 dc         1 CLA      0.006600
    110 H111       82.7377   57.1692   42.2710 dc         1 CLA      0.006600
    111 H102       84.7131   56.4025   41.9305 dc         1 CLA      0.024100
    112 H101       85.4350   58.0722   41.4887 dc         1 CLA      0.024100
    113 HHD        72.0215   56.5998   40.7111 da         1 CLA      0.174300
    114 HHC        76.0944   60.4720   43.7691 da         1 CLA      0.136800
    115 HHB        80.4115   59.7567   39.2073 da         1 CLA      0.138300
    116 HBD        76.0587   55.8384   34.9598 dc         1 CLA      0.107700
    117 HAB        77.5342   62.0095   44.2575 da         1 CLA      0.155200
    118 H93        85.9134   55.9311   38.4304 dc         1 CLA      0.069500
    119 H92        86.5030   57.2824   39.3262 dc         1 CLA      0.069500
    120 H91        86.4290   55.7933   40.1489 dc         1 CLA      0.069500
    121 H8         84.0472   57.4687   39.3085 dc         1 CLA      0.029300
    122 H72        82.6459   55.8705   39.9001 dc         1 CLA      0.044400
    123 H71        83.9559   54.7746   40.5605 dc         1 CLA      0.044400
    124 H62        84.2912   54.1792   38.1468 dc         1 CLA      0.015600
    125 H61        83.5877   55.6031   37.6608 dc         1 CLA      0.015600
    126 H52        81.4133   54.6299   38.5005 dc         1 CLA      0.033200
    127 H51        82.3588   53.2008   39.0041 dc         1 CLA      0.033200
    128 H43        82.8099   51.5756   35.8800 dc         1 CLA      0.037000
    129 H42        83.8802   51.9134   37.2168 dc         1 CLA      0.037000
    130 H41        82.1960   51.4007   37.4429 dc         1 CLA      0.037000
    131 H3A        80.0269   59.0228   36.6434 dc         1 CLA      0.041100
    132 H2A        79.2067   56.2648   36.5976 dc         1 CLA      0.083100
    133 H2         80.4293   53.6789   35.7517 da         1 CLA      0.180900
    134 H18        82.1575   62.4760   46.7087 dc         1 CLA     -0.003900
    135 H13        85.4048   58.3112   43.8190 dc         1 CLA      0.019700
    136 H12        82.4384   54.2236   33.9149 dc         1 CLA      0.120400
    137 H11        83.3368   54.8130   35.2502 dc         1 CLA      0.120400
    138 C1         68.1001   61.0086   49.5144 Z1         2 LUT      0.509236
    139 C2         66.8420   60.7165   50.4572 Z2         2 LUT     -0.434695
    140 C3         66.0018   61.9606   50.7766 Z3         2 LUT      0.437453
    141 O3         66.3315   62.5895   52.0291 S1         2 LUT     -0.547129
    142 C4         65.9821   63.0552   49.7090 Z4         2 LUT     -0.468603
    143 C5         66.6977   62.8092   48.3906 Z5         2 LUT      0.279246
    144 C6         67.6810   61.9238   48.3242 Z6         2 LUT     -0.305473
    145 C7         68.2553   61.4611   47.0631 Z7         2 LUT      0.069402
    146 C8         69.0001   62.0914   46.1567 Z8         2 LUT     -0.191631
    147 C9         69.5545   61.5457   44.8643 Z9         2 LUT      0.196698
    148 C10        70.5577   62.2338   44.2150 Y1         2 LUT     -0.208611
    149 C11        71.2762   61.9209   43.0353 Y2         2 LUT      0.030784
    150 C12        72.3755   62.6712   42.7677 Y3         2 LUT     -0.220316
    151 C13        73.4439   62.6894   41.7354 Y4         2 LUT      0.215937
    152 C14        74.5171   63.5769   41.7974 Y5         2 LUT     -0.185793
    153 C15        75.8090   63.3718   41.1182 Y6         2 LUT     -0.057835
    154 C16        68.7427   59.5787   49.1974 Y7         2 LUT     -0.405615
    155 C17        69.1851   61.6564   50.3925 Y7         2 LUT     -0.405615
    156 C18        66.1998   63.6060   47.2412 Y9         2 LUT     -0.369639
    157 C19        68.8792   60.3285   44.2456 W1         2 LUT     -0.333362
    158 C20        73.0955   62.0324   40.4442 W2         2 LUT     -0.323439
    159 C21        87.2693   64.5518   35.6280 Z1         2 LUT      0.406104
    160 C22        88.1778   64.0053   34.5037 Z2         2 LUT     -0.404965
    161 C23        88.2358   64.8665   33.2570 Z3         2 LUT      0.391255
    162 O23        88.7455   64.1088   32.1896 S1         2 LUT     -0.528210
    163 C24        87.0408   65.7793   32.9525 W6         2 LUT     -0.258361
    164 C25        85.8798   65.7785   33.6872 Z5         2 LUT      0.133546
    165 C26        85.8398   64.9671   35.0221 W8         2 LUT     -0.147008
    166 C27        85.0645   65.6267   36.1224 Z7         2 LUT      0.023843
    167 C28        83.9538   65.1055   36.6836 Z8         2 LUT     -0.216987
    168 C29        83.2024   65.7006   37.7835 Z9         2 LUT      0.206524
    169 C30        82.1883   64.9456   38.1720 Y1         2 LUT     -0.215556
    170 C31        81.2000   65.2819   39.2041 Y2         2 LUT      0.025142
    171 C32        80.1647   64.4329   39.5473 Y3         2 LUT     -0.212209
    172 C33        79.2075   64.7194   40.5324 Y4         2 LUT      0.240937
    173 C34        78.0963   63.9369   40.6990 Y5         2 LUT     -0.218862
    174 C35        76.8968   64.1459   41.3636 Y6         2 LUT     -0.023547
    175 C36        88.1862   65.7173   36.2590 Y7         2 LUT     -0.393485
    176 C37        87.1556   63.4828   36.7163 Y7         2 LUT     -0.393485
    177 C38        84.6794   66.4775   33.1658 Y9         2 LUT     -0.387526
    178 C39        83.5439   67.0938   38.2730 W1         2 LUT     -0.322618
    179 C40        79.5317   65.7778   41.5732 W2         2 LUT     -0.358472
    180 H403       80.5966   65.8636   41.8827 R7         2 LUT      0.097720
    181 H402       79.2173   66.8294   41.2357 R7         2 LUT      0.097720
    182 H401       79.0031   65.5986   42.5188 R7         2 LUT      0.097720
    183 H393       84.5341   67.1698   38.6079 R4         2 LUT      0.082505
    184 H392       83.3139   67.7812   37.5170 R4         2 LUT      0.082505
    185 H391       82.9076   67.3714   39.0858 R4         2 LUT      0.082505
    186 H383       84.8464   66.6599   32.1187 R1         2 LUT      0.104030
    187 H382       83.7400   65.9039   33.1950 R1         2 LUT      0.104030
    188 H381       84.5193   67.3300   33.8820 R1         2 LUT      0.104030
    189 H373       88.0101   63.3591   37.2510 T4         2 LUT      0.089537
    190 H372       86.4371   63.7412   37.5124 T4         2 LUT      0.089537
    191 H371       86.8808   62.4793   36.3226 T4         2 LUT      0.089537
    192 H363       89.0581   65.2835   36.6567 T4         2 LUT      0.089537
    193 H362       88.4380   66.5564   35.5972 T4         2 LUT      0.089537
    194 H361       87.5990   66.2412   37.0106 T4         2 LUT      0.089537
    195 H222       89.2582   63.9209   34.6573 U2         2 LUT      0.127376
    196 H221       87.8916   62.9710   34.1978 U2         2 LUT      0.127376
    197 H203       73.1055   60.9352   40.4996 R7         2 LUT      0.087068
    198 H202       72.0512   62.2061   40.1474 R7         2 LUT      0.087068
    199 H201       73.7442   62.4567   39.6255 R7         2 LUT      0.087068
    200 H193       69.4155   60.0758   43.3027 R4         2 LUT      0.089716
    201 H192       69.0173   59.4111   44.7918 R4         2 LUT      0.089716
    202 H191       67.7884   60.3269   44.1263 R4         2 LUT      0.089716
    203 H183       65.1524   63.9995   47.3430 R1         2 LUT      0.094572
    204 H182       66.8844   64.4064   47.1007 R1         2 LUT      0.094572
    205 H181       66.1309   62.9647   46.3348 R1         2 LUT      0.094572
    206 H173       68.8804   62.6632   50.7851 T4         2 LUT      0.093752
    207 H172       69.3618   61.0384   51.2490 T4         2 LUT      0.093752
    208 H171       70.2233   61.7374   50.0220 T4         2 LUT      0.093752
    209 H163       69.0993   59.0775   50.1138 T4         2 LUT      0.093752
    210 H162       68.0531   58.7914   48.8813 T4         2 LUT      0.093752
    211 H161       69.5320   59.6808   48.4360 T4         2 LUT      0.093752
    212 HO3        66.0027   62.0996   52.8199 Q1         2 LUT      0.300121
    213 H8         69.3194   63.1284   46.3486 U7         2 LUT      0.080784
    214 H7         67.9317   60.4672   46.9001 U6         2 LUT      0.042190
    215 H42        65.0070   63.1912   49.3698 U5         2 LUT      0.145166
    216 H41        66.3141   64.0269   50.0515 U5         2 LUT      0.145166
    217 H35        76.8346   64.9603   42.0954 T3         2 LUT      0.077919
    218 H34        78.0603   63.1454   39.9724 T2         2 LUT      0.073626
    219 H32        79.9658   63.5597   38.9318 T1         2 LUT      0.092510
    220 H31        81.3826   66.1589   39.7988 U9         2 LUT      0.070048
    221 H30        82.0705   63.9450   37.7798 U8         2 LUT      0.085442
    222 H3         64.9861   61.5395   50.9647 U3         2 LUT     -0.031596
    223 H28        83.6029   64.1336   36.2556 U7         2 LUT      0.084728
    224 H27        85.3685   66.6554   36.3914 U6         2 LUT      0.087291
    225 H26        85.2209   64.1078   34.8333 Q6         2 LUT      0.075325
    226 H24        87.0753   66.2151   31.9572 Q5         2 LUT      0.094482
    227 H23        89.0591   65.5213   33.5021 U3         2 LUT     -0.024869
    228 H22        66.1625   60.0445   49.9629 U2         2 LUT      0.127376
    229 H21        67.1451   60.2502   51.3490 U2         2 LUT      0.127376
    230 H15        75.9405   62.6513   40.3449 T3         2 LUT      0.093200
    231 H14        74.6083   64.3624   42.5531 T2         2 LUT      0.068865
    232 H12        72.7464   63.3060   43.5610 T1         2 LUT      0.095507
    233 H11        70.9890   61.1587   42.3938 U9         2 LUT      0.068930
    234 H10        70.8145   63.1983   44.6556 U8         2 LUT      0.083911
    235 H1         88.7270   64.5405   31.3693 Q1         2 LUT      0.297311
@<TRIPOS>BOND
    1     6     1 1
    2     7     2 1
    3     8     3 1
    4     9     4 1
    5    11     4 1
    6    12     6 1
    7    13     9 1
    8    16     9 1
    9    25     5 1
   10    25    16 1
   11    26    10 1
   12    26    17 1
   13    27    18 1
   14    28    14 1
   15    28    19 1
   16    29    12 1
   17    30    13 1
   18    31    24 1
   19    32     1 1
   20    32    25 1
   21    33    21 1
   22    33    26 1
   23    34    22 1
   24    34    27 1
   25    35    23 1
   26    35    28 1
   27    36    12 1
   28    36    24 1
   29    37    13 1
   30    37    15 1
   31    38    31 1
   32    39    20 1
   33    39    32 1
   34    40     2 1
   35    40    33 1
   36    41     3 1
   37    41    34 1
   38    42     4 1
   39    42    35 1
   40    43    38 1
   41    44     5 1
   42    44    17 1
   43    44    39 1
   44    45    10 1
   45    45    18 1
   46    45    40 1
   47    46    19 1
   48    46    41 1
   49    47    14 1
   50    47    16 1
   51    47    42 1
   52    48    38 1
   53    49    48 1
   54    50    49 1
   55    51    50 1
   56    52    51 1
   57    53    51 1
   58    54    53 1
   59    55    54 1
   60    56    55 1
   61    57    56 1
   62    58    56 1
   63    59    58 1
   64    60    59 1
   65    61    60 1
   66    62    61 1
   67    63    61 1
   68    64    27 1
   69    64    46 1
   70    65     5 1
   71    65    10 1
   72    65    64 1
   73    65    14 1
   74    66    23 1
   75    67    23 1
   76    68    23 1
   77    69    22 1
   78    70    22 1
   79    71    22 1
   80    72    21 1
   81    73    21 1
   82    74    21 1
   83    75    20 1
   84    76    20 1
   85    77    20 1
   86    78    15 1
   87    79    15 1
   88    80    15 1
   89    81     8 1
   90    82     8 1
   91    83     8 1
   92    84     7 1
   93    85     7 1
   94    86     6 1
   95    87     6 1
   96    88     3 1
   97    89     3 1
   98    90     1 1
   99    91     1 1
  100    92    63 1
  101    93    63 1
  102    94    63 1
  103    95    62 1
  104    96    62 1
  105    97    62 1
  106    98    60 1
  107    99    60 1
  108   100    59 1
  109   101    59 1
  110   102    58 1
  111   103    58 1
  112   104    57 1
  113   105    57 1
  114   106    57 1
  115   107    55 1
  116   108    55 1
  117   109    54 1
  118   110    54 1
  119   111    53 1
  120   112    53 1
  121   113    19 1
  122   114    18 1
  123   115    17 1
  124   116     9 1
  125   117     2 1
  126   118    52 1
  127   119    52 1
  128   120    52 1
  129   121    51 1
  130   122    50 1
  131   123    50 1
  132   124    49 1
  133   125    49 1
  134   126    48 1
  135   127    48 1
  136   128    43 1
  137   129    43 1
  138   130    43 1
  139   131    39 1
  140   132    32 1
  141   133    31 1
  142   134    61 1
  143   135    56 1
  144   136    24 1
  145   137    24 1
  146   139   138 1
  147   140   139 1
  148   141   140 1
  149   142   140 1
  150   143   142 1
  151   144   138 1
  152   144   143 1
  153   145   144 1
  154   146   145 1
  155   147   146 1
  156   148   147 1
  157   149   148 1
  158   150   149 1
  159   151   150 1
  160   152   151 1
  161   153   152 1
  162   154   138 1
  163   155   138 1
  164   156   143 1
  165   157   147 1
  166   158   151 1
  167   160   159 1
  168   161   160 1
  169   162   161 1
  170   163   161 1
  171   164   163 1
  172   165   159 1
  173   165   164 1
  174   166   165 1
  175   167   166 1
  176   168   167 1
  177   169   168 1
  178   170   169 1
  179   171   170 1
  180   172   171 1
  181   173   172 1
  182   174   153 1
  183   174   173 1
  184   175   159 1
  185   176   159 1
  186   177   164 1
  187   178   168 1
  188   179   172 1
  189   180   179 1
  190   181   179 1
  191   182   179 1
  192   183   178 1
  193   184   178 1
  194   185   178 1
  195   186   177 1
  196   187   177 1
  197   188   177 1
  198   189   176 1
  199   190   176 1
  200   191   176 1
  201   192   175 1
  202   193   175 1
  203   194   175 1
  204   195   160 1
  205   196   160 1
  206   197   158 1
  207   198   158 1
  208   199   158 1
  209   200   157 1
  210   201   157 1
  211   202   157 1
  212   203   156 1
  213   204   156 1
  214   205   156 1
  215   206   155 1
  216   207   155 1
  217   208   155 1
  218   209   154 1
  219   210   154 1
  220   211   154 1
  221   212   141 1
  222   213   146 1
  223   214   145 1
  224   215   142 1
  225   216   142 1
  226   217   174 1
  227   218   173 1
  228   219   171 1
  229   220   170 1
  230   221   169 1
  231   222   140 1
  232   223   167 1
  233   224   166 1
  234   225   165 1
  235   226   163 1
  236   227   161 1
  237   228   139 1
  238   229   139 1
  239   230   153 1
  240   231   152 1
  241   232   150 1
  242   233   149 1
  243   234   148 1
  244   235   162 1
  245   65    153 1
  246   65    174 1
@<TRIPOS>SUBSTRUCTURE
      1 CLA               1 ****               0 ****  **** 
      2 LUT             138 ****               0 ****  **** 
