@<TRIPOS>MOLECULE
Cpptraj generated mol2 file.
  235   246     2     0     0
SMALL
USER_CHARGES


@<TRIPOS>ATOM
      1 CAA        79.4851   58.8829   33.7186 a2         1 CLA     -0.055900
      2 CAB        79.0269   62.2346   42.9446 c8         1 CLA     -0.148500
      3 CAC        72.3554   58.2581   42.0062 a2         1 CLA     -0.012600
      4 CAD        75.1941   56.3518   34.5766 ck         1 CLA      0.398800
      5 NA         78.3212   59.1337   37.0476 ns         1 CLA     -0.225500
      6 CBA        80.7716   58.7859   32.9125 a2         1 CLA     -0.135000
      7 CBB        80.1839   62.5462   43.5477 c0         1 CLA     -0.395200
      8 CBC        72.3120   56.7516   41.7722 a3         1 CLA     -0.037700
      9 CBD        76.6833   56.8411   34.3823 a1         1 CLA     -0.053900
     10 NB         78.1023   60.4798   39.7570 nm         1 CLA     -0.295700
     11 OBD        74.5240   55.6782   33.7888 o2         1 CLA     -0.494600
     12 CGA        81.2016   57.3719   32.4762 c4         1 CLA      0.827000
     13 CGD        77.6732   55.6510   33.9749 c4         1 CLA      0.655300
     14 ND         75.4691   58.4114   37.5088 nm         1 CLA     -0.291600
     15 CED        78.1794   53.3699   33.9713 a3         1 CLA      0.005400
     16 CHA        77.0181   57.7644   35.5594 cs         1 CLA     -0.123800
     17 CHB        80.1078   60.3144   38.3141 aa         1 CLA     -0.291900
     18 CHC        76.6002   60.8468   41.7285 aa         1 CLA     -0.090400
     19 CHD        73.4592   58.3563   38.9667 aa         1 CLA     -0.052000
     20 CMA        81.6371   58.2140   36.6449 a3         1 CLA     -0.230700
     21 CMB        81.4060   62.0377   40.4928 a3         1 CLA     -0.180800
     22 CMC        74.0231   60.4507   43.4660 a3         1 CLA     -0.134000
     23 CMD        72.3587   56.5158   36.5564 a3         1 CLA     -0.141100
     24 C1         81.7645   55.2743   33.2611 a2         1 CLA      0.023000
     25 C1A        78.2148   58.3930   35.8784 ac         1 CLA     -0.015100
     26 C1B        79.4114   60.8044   39.4947 cr         1 CLA      0.054700
     27 C1C        75.4253   60.1794   41.2958 cn         1 CLA     -0.005600
     28 C1D        74.1779   58.0205   37.7782 ap         1 CLA     -0.047300
     29 O1A        81.1966   56.8859   31.3584 o2         1 CLA     -0.610800
     30 O1D        78.7270   55.7825   33.3284 o2         1 CLA     -0.558200
     31 C2         82.5704   54.6382   34.3695 c8         1 CLA     -0.325100
     32 C2A        79.5007   58.3857   35.1481 a1         1 CLA      0.098600
     33 C2B        79.9789   61.6187   40.5490 cb         1 CLA      0.088500
     34 C2C        74.2006   59.9801   42.1042 cb         1 CLA      0.053700
     35 C2D        73.6866   57.1514   36.7225 cb         1 CLA      0.058900
     36 O2A        81.5160   56.6347   33.5766 o1         1 CLA     -0.437200
     37 O2D        77.2371   54.4307   34.3128 o1         1 CLA     -0.357600
     38 C3         83.3613   53.5681   34.2323 c5         1 CLA      0.031200
     39 C3A        80.5560   59.1136   36.0774 a1         1 CLA      0.166800
     40 C3B        78.9835   61.6902   41.5999 cb         1 CLA      0.035000
     41 C3C        73.4919   58.9944   41.4178 cb         1 CLA     -0.089900
     42 C3D        74.7518   57.0358   35.8175 cb         1 CLA     -0.035900
     43 C4         82.7086   52.1188   34.3911 a3         1 CLA     -0.053300
     44 C4A        79.6075   59.5722   37.2005 ac         1 CLA      0.001800
     45 C4B        77.8545   60.9938   41.0445 cn         1 CLA     -0.020900
     46 C4C        74.0195   58.9700   40.0644 cr         1 CLA     -0.044400
     47 C4D        75.8010   57.8479   36.3329 c6         1 CLA     -0.046000
     48 C5         84.8228   53.6284   33.8441 a2         1 CLA     -0.070400
     49 C6         85.6804   54.8358   34.3590 a2         1 CLA      0.043900
     50 C7         85.8645   54.7927   35.8973 a2         1 CLA     -0.150000
     51 C8         86.3892   56.1392   36.4390 a1         1 CLA      0.064200
     52 C9         87.5519   56.7840   35.6859 a3         1 CLA     -0.259300
     53 C10        86.7704   55.9848   37.9810 a2         1 CLA     -0.071900
     54 C11        86.7545   57.2493   38.8317 a2         1 CLA      0.014500
     55 C12        86.8742   57.0144   40.4021 a2         1 CLA     -0.112100
     56 C13        86.5928   58.2167   41.3758 a1         1 CLA      0.089200
     57 C14        87.6612   59.3509   41.3398 a3         1 CLA     -0.239100
     58 C15        86.2112   57.7892   42.9028 a2         1 CLA     -0.102200
     59 C16        85.5610   58.8952   43.7590 a2         1 CLA      0.023900
     60 C17        84.9661   58.2537   45.0308 a2         1 CLA     -0.105700
     61 C18        84.9107   59.2198   46.2493 a1         1 CLA      0.206800
     62 C19        83.9294   60.3853   46.0693 a3         1 CLA     -0.280100
     63 C20        84.6087   58.4482   47.6196 a3         1 CLA     -0.280100
     64 NC         75.2327   59.6374   40.0329 nx         1 CLA     -0.309200
     65 MG         76.7659   59.5375   38.6141 mg         1 CLA      0.895000
     66 HMD3       72.4469   55.6978   35.8289 dc         1 CLA      0.064300
     67 HMD2       72.0200   56.0542   37.4662 dc         1 CLA      0.064300
     68 HMD1       71.7385   57.3116   36.1781 dc         1 CLA      0.064300
     69 HMC3       73.0722   60.1144   43.9438 dc         1 CLA      0.052100
     70 HMC2       74.7920   60.2019   44.0878 dc         1 CLA      0.052100
     71 HMC1       74.0609   61.5796   43.4407 dc         1 CLA      0.052100
     72 HMB3       81.7598   62.1086   39.4913 dc         1 CLA      0.063600
     73 HMB2       81.4394   63.0640   40.9413 dc         1 CLA      0.063600
     74 HMB1       82.0272   61.4137   41.0326 dc         1 CLA      0.063600
     75 HMA3       82.2917   58.5628   37.4156 dc         1 CLA      0.058300
     76 HMA2       81.2404   57.3031   37.0494 dc         1 CLA      0.058300
     77 HMA1       82.3259   57.9076   35.8581 dc         1 CLA      0.058300
     78 HED3       79.2119   53.4468   34.3338 dc         1 CLA      0.079300
     79 HED2       77.8592   52.4365   34.4597 dc         1 CLA      0.079300
     80 HED1       78.2823   53.2298   32.8810 dc         1 CLA      0.079300
     81 HBC3       72.4311   56.5449   40.7091 dc         1 CLA      0.016300
     82 HBC2       73.1950   56.2840   42.2037 dc         1 CLA      0.016300
     83 HBC1       71.3638   56.2508   42.0890 dc         1 CLA      0.016300
     84 HBB2       80.1803   62.8138   44.6233 da         1 CLA      0.183000
     85 HBB1       81.2092   62.4396   43.1183 da         1 CLA      0.183000
     86 HBA2       80.4554   59.3119   31.9700 dc         1 CLA      0.029400
     87 HBA1       81.6339   59.1359   33.4831 dc         1 CLA      0.029400
     88 HAC2       72.1709   58.4421   43.0381 dc         1 CLA      0.029300
     89 HAC1       71.4447   58.7257   41.5441 dc         1 CLA      0.029300
     90 HAA2       78.6712   58.2522   33.2432 dc         1 CLA      0.028700
     91 HAA1       79.0862   59.8782   33.8142 dc         1 CLA      0.028700
     92 H203       85.1711   57.5103   47.8530 dc         1 CLA      0.065600
     93 H202       84.7725   59.1137   48.4203 dc         1 CLA      0.065600
     94 H201       83.5393   58.1747   47.6989 dc         1 CLA      0.065600
     95 H193       84.1155   61.1123   46.8188 dc         1 CLA      0.065600
     96 H192       83.8659   60.7323   45.0723 dc         1 CLA      0.065600
     97 H191       82.8887   59.9664   46.2201 dc         1 CLA      0.065600
     98 H172       83.9697   57.8805   44.7943 dc         1 CLA      0.027600
     99 H171       85.6870   57.4674   45.2613 dc         1 CLA      0.027600
    100 H162       86.4427   59.4899   43.9814 dc         1 CLA      0.002900
    101 H161       84.9609   59.5755   43.1174 dc         1 CLA      0.002900
    102 H152       85.5348   56.9179   42.8687 dc         1 CLA      0.029100
    103 H151       87.1036   57.3997   43.3606 dc         1 CLA      0.029100
    104 H143       87.8031   59.7245   40.3553 dc         1 CLA      0.063600
    105 H142       87.1703   60.1248   41.8240 dc         1 CLA      0.063600
    106 H141       88.5762   58.8992   41.7670 dc         1 CLA      0.063600
    107 H122       86.2244   56.1687   40.6437 dc         1 CLA      0.032500
    108 H121       87.8898   56.7629   40.6064 dc         1 CLA      0.032500
    109 H112       87.5497   57.9863   38.5808 dc         1 CLA      0.006600
    110 H111       85.7742   57.6477   38.5776 dc         1 CLA      0.006600
    111 H102       86.1850   55.1638   38.4164 dc         1 CLA      0.024100
    112 H101       87.7766   55.6407   38.0257 dc         1 CLA      0.024100
    113 HHD        72.5505   57.8567   39.0724 da         1 CLA      0.174300
    114 HHC        76.5642   61.2624   42.7613 da         1 CLA      0.136800
    115 HHB        81.1752   60.4214   38.4412 da         1 CLA      0.138300
    116 HBD        76.6774   57.3917   33.4615 dc         1 CLA      0.107700
    117 HAB        78.1375   62.3239   43.5066 da         1 CLA      0.155200
    118 H93        87.7450   57.6276   36.2445 dc         1 CLA      0.069500
    119 H92        88.4162   56.1900   35.5190 dc         1 CLA      0.069500
    120 H91        87.2359   57.0232   34.7271 dc         1 CLA      0.069500
    121 H8         85.5551   56.7987   36.3213 dc         1 CLA      0.029300
    122 H72        84.8420   54.6974   36.3952 dc         1 CLA      0.044400
    123 H71        86.4371   53.9779   36.2386 dc         1 CLA      0.044400
    124 H62        86.5769   54.7831   33.8316 dc         1 CLA      0.015600
    125 H61        85.0727   55.7684   34.0622 dc         1 CLA      0.015600
    126 H52        85.3917   52.7769   34.1739 dc         1 CLA      0.033200
    127 H51        84.7900   53.7455   32.7370 dc         1 CLA      0.033200
    128 H43        83.1838   51.3833   33.7558 dc         1 CLA      0.037000
    129 H42        82.7595   51.7672   35.4701 dc         1 CLA      0.037000
    130 H41        81.6574   52.3063   33.9899 dc         1 CLA      0.037000
    131 H3A        80.9892   60.0320   35.6148 dc         1 CLA      0.041100
    132 H2A        79.7491   57.3208   35.2367 dc         1 CLA      0.083100
    133 H2         82.6220   55.1103   35.3591 da         1 CLA      0.180900
    134 H18        85.9463   59.5595   46.4257 dc         1 CLA     -0.003900
    135 H13        85.7103   58.6639   41.0248 dc         1 CLA      0.019700
    136 H12        80.8489   54.7633   32.9860 dc         1 CLA      0.120400
    137 H11        82.4153   55.2029   32.3211 dc         1 CLA      0.120400
    138 C1         69.0001   61.5808   49.0661 Z1         2 LUT      0.509236
    139 C2         67.5685   61.1841   49.5907 Z2         2 LUT     -0.434695
    140 C3         66.6535   62.3651   49.9538 Z3         2 LUT      0.437453
    141 O3         66.6895   62.7939   51.3811 S1         2 LUT     -0.547129
    142 C4         66.9707   63.6052   49.1663 Z4         2 LUT     -0.468603
    143 C5         67.6572   63.4495   47.8889 Z5         2 LUT      0.279246
    144 C6         68.6096   62.5420   47.8134 Z6         2 LUT     -0.305473
    145 C7         69.1044   62.1926   46.4331 Z7         2 LUT      0.069402
    146 C8         70.2052   62.6670   45.8595 Z8         2 LUT     -0.191631
    147 C9         70.7547   62.4496   44.5244 Z9         2 LUT      0.196698
    148 C10        71.7786   63.2158   44.0678 Y1         2 LUT     -0.208611
    149 C11        72.4452   63.3666   42.8578 Y2         2 LUT      0.030784
    150 C12        73.6180   64.0330   42.6724 Y3         2 LUT     -0.220316
    151 C13        74.5166   64.0708   41.5217 Y4         2 LUT      0.215937
    152 C14        75.7896   64.6518   41.7382 Y5         2 LUT     -0.185793
    153 C15        76.7761   64.6831   40.7397 Y6         2 LUT     -0.057835
    154 C16        69.8233   60.3411   48.5902 Y7         2 LUT     -0.405615
    155 C17        69.8789   62.3124   50.1587 Y7         2 LUT     -0.405615
    156 C18        66.8985   64.2095   46.8169 Y9         2 LUT     -0.369639
    157 C19        70.1781   61.2615   43.7595 W1         2 LUT     -0.333362
    158 C20        73.9477   63.6458   40.1994 W2         2 LUT     -0.323439
    159 C21        88.4510   66.2041   34.6352 Z1         2 LUT      0.406104
    160 C22        89.2478   65.8387   33.3896 Z2         2 LUT     -0.404965
    161 C23        89.3878   66.9328   32.2653 Z3         2 LUT      0.391255
    162 O23        89.9925   66.4115   31.1391 S1         2 LUT     -0.528210
    163 C24        87.9767   67.5145   32.0382 W6         2 LUT     -0.258361
    164 C25        86.9706   67.5153   32.8896 Z5         2 LUT      0.133546
    165 C26        87.0476   66.6924   34.1864 W8         2 LUT     -0.147008
    166 C27        86.2500   67.3301   35.3763 Z7         2 LUT      0.023843
    167 C28        84.9867   66.8549   35.6582 Z8         2 LUT     -0.216987
    168 C29        84.0430   67.3285   36.7660 Z9         2 LUT      0.206524
    169 C30        82.9665   66.5194   37.1197 Y1         2 LUT     -0.215556
    170 C31        81.9798   66.7666   38.1347 Y2         2 LUT      0.025142
    171 C32        80.9261   65.9841   38.4790 Y3         2 LUT     -0.212209
    172 C33        80.0076   66.2191   39.5827 Y4         2 LUT      0.240937
    173 C34        78.9566   65.3752   39.7303 Y5         2 LUT     -0.218862
    174 C35        77.9537   65.3802   40.7699 Y6         2 LUT     -0.023547
    175 C36        89.3131   67.2275   35.3763 Y7         2 LUT     -0.393485
    176 C37        88.3115   64.9368   35.3747 Y7         2 LUT     -0.393485
    177 C38        85.7674   68.3006   32.4826 Y9         2 LUT     -0.387526
    178 C39        84.4451   68.6123   37.5062 W1         2 LUT     -0.322618
    179 C40        80.3299   67.2405   40.6488 W2         2 LUT     -0.358472
    180 H403       81.4304   67.4141   40.7477 R7         2 LUT      0.097720
    181 H402       79.8093   68.1439   40.6305 R7         2 LUT      0.097720
    182 H401       80.1396   66.9171   41.6310 R7         2 LUT      0.097720
    183 H393       83.7357   68.9579   38.2293 R4         2 LUT      0.082505
    184 H392       85.3830   68.4569   38.0954 R4         2 LUT      0.082505
    185 H391       84.5244   69.4676   36.8968 R4         2 LUT      0.082505
    186 H383       85.1724   68.5344   33.3693 R1         2 LUT      0.104030
    187 H382       85.9399   69.1688   31.9411 R1         2 LUT      0.104030
    188 H381       85.1217   67.7179   31.8596 R1         2 LUT      0.104030
    189 H373       87.7017   64.1202   35.0025 T4         2 LUT      0.089537
    190 H372       89.3461   64.5556   35.6152 T4         2 LUT      0.089537
    191 H371       87.7832   65.1385   36.3192 T4         2 LUT      0.089537
    192 H363       89.4312   68.1725   34.8495 T4         2 LUT      0.089537
    193 H362       88.8149   67.3609   36.4276 T4         2 LUT      0.089537
    194 H361       90.3168   66.7847   35.6574 T4         2 LUT      0.089537
    195 H222       90.2624   65.6403   33.6703 U2         2 LUT      0.127376
    196 H221       88.7039   65.0237   32.9334 U2         2 LUT      0.127376
    197 H203       72.8825   63.9545   40.0219 R7         2 LUT      0.087068
    198 H202       74.5236   64.0339   39.4369 R7         2 LUT      0.087068
    199 H201       73.9283   62.5474   40.1453 R7         2 LUT      0.087068
    200 H193       70.3723   60.3538   44.2618 R4         2 LUT      0.089716
    201 H192       69.1143   61.3862   43.8001 R4         2 LUT      0.089716
    202 H191       70.5111   61.2127   42.6612 R4         2 LUT      0.089716
    203 H183       67.4563   64.2176   45.8991 R1         2 LUT      0.094572
    204 H182       65.9607   63.8340   46.6099 R1         2 LUT      0.094572
    205 H181       66.7712   65.2695   47.0955 R1         2 LUT      0.094572
    206 H173       69.2215   63.0828   50.6955 T4         2 LUT      0.093752
    207 H172       70.3868   61.6561   50.8723 T4         2 LUT      0.093752
    208 H171       70.5438   62.9151   49.6393 T4         2 LUT      0.093752
    209 H163       69.2735   59.7052   47.8417 T4         2 LUT      0.093752
    210 H162       70.7366   60.6842   48.0502 T4         2 LUT      0.093752
    211 H161       70.1072   59.7206   49.4919 T4         2 LUT      0.093752
    212 HO3        66.3870   62.0912   51.9888 Q1         2 LUT      0.300121
    213 H8         70.7060   63.4228   46.4433 U7         2 LUT      0.080784
    214 H7         68.5694   61.4753   45.8355 U6         2 LUT      0.042190
    215 H42        66.0214   64.2156   49.1226 U5         2 LUT      0.145166
    216 H41        67.6583   64.2144   49.7826 U5         2 LUT      0.145166
    217 H35        78.0372   65.9628   41.7212 T3         2 LUT      0.077919
    218 H34        78.6592   64.5848   38.9970 T2         2 LUT      0.073626
    219 H32        80.8036   65.0604   37.9023 T1         2 LUT      0.092510
    220 H31        82.1220   67.6628   38.7239 U9         2 LUT      0.070048
    221 H30        82.8632   65.5125   36.7635 U8         2 LUT      0.085442
    222 H3         65.6440   61.9959   49.8359 U3         2 LUT     -0.031596
    223 H28        84.6620   66.0592   35.0154 U7         2 LUT      0.084728
    224 H27        86.7344   67.9861   35.9883 U6         2 LUT      0.087291
    225 H26        86.5538   65.7977   33.8050 Q6         2 LUT      0.075325
    226 H24        87.9677   68.1166   31.1938 Q5         2 LUT      0.094482
    227 H23        89.9436   67.8171   32.6667 U3         2 LUT     -0.024869
    228 H22        66.9927   60.4967   48.9904 U2         2 LUT      0.127376
    229 H21        67.6657   60.4094   50.3144 U2         2 LUT      0.127376
    230 H15        76.7007   64.1175   39.8294 T3         2 LUT      0.093200
    231 H14        76.0202   64.8317   42.7617 T2         2 LUT      0.068865
    232 H12        74.0010   64.6023   43.5074 T1         2 LUT      0.095507
    233 H11        72.0967   62.7117   42.0971 U9         2 LUT      0.068930
    234 H10        71.9970   64.0197   44.7821 U8         2 LUT      0.083911
    235 H1         89.5988   65.6634   30.6710 Q1         2 LUT      0.297311
@<TRIPOS>BOND
    1     6     1 1
    2     7     2 1
    3     8     3 1
    4     9     4 1
    5    11     4 1
    6    12     6 1
    7    13     9 1
    8    16     9 1
    9    25     5 1
   10    25    16 1
   11    26    10 1
   12    26    17 1
   13    27    18 1
   14    28    14 1
   15    28    19 1
   16    29    12 1
   17    30    13 1
   18    31    24 1
   19    32     1 1
   20    32    25 1
   21    33    21 1
   22    33    26 1
   23    34    22 1
   24    34    27 1
   25    35    23 1
   26    35    28 1
   27    36    12 1
   28    36    24 1
   29    37    13 1
   30    37    15 1
   31    38    31 1
   32    39    20 1
   33    39    32 1
   34    40     2 1
   35    40    33 1
   36    41     3 1
   37    41    34 1
   38    42     4 1
   39    42    35 1
   40    43    38 1
   41    44     5 1
   42    44    17 1
   43    44    39 1
   44    45    10 1
   45    45    18 1
   46    45    40 1
   47    46    19 1
   48    46    41 1
   49    47    14 1
   50    47    16 1
   51    47    42 1
   52    48    38 1
   53    49    48 1
   54    50    49 1
   55    51    50 1
   56    52    51 1
   57    53    51 1
   58    54    53 1
   59    55    54 1
   60    56    55 1
   61    57    56 1
   62    58    56 1
   63    59    58 1
   64    60    59 1
   65    61    60 1
   66    62    61 1
   67    63    61 1
   68    64    27 1
   69    64    46 1
   70    65     5 1
   71    65    10 1
   72    65    64 1
   73    65    14 1
   74    66    23 1
   75    67    23 1
   76    68    23 1
   77    69    22 1
   78    70    22 1
   79    71    22 1
   80    72    21 1
   81    73    21 1
   82    74    21 1
   83    75    20 1
   84    76    20 1
   85    77    20 1
   86    78    15 1
   87    79    15 1
   88    80    15 1
   89    81     8 1
   90    82     8 1
   91    83     8 1
   92    84     7 1
   93    85     7 1
   94    86     6 1
   95    87     6 1
   96    88     3 1
   97    89     3 1
   98    90     1 1
   99    91     1 1
  100    92    63 1
  101    93    63 1
  102    94    63 1
  103    95    62 1
  104    96    62 1
  105    97    62 1
  106    98    60 1
  107    99    60 1
  108   100    59 1
  109   101    59 1
  110   102    58 1
  111   103    58 1
  112   104    57 1
  113   105    57 1
  114   106    57 1
  115   107    55 1
  116   108    55 1
  117   109    54 1
  118   110    54 1
  119   111    53 1
  120   112    53 1
  121   113    19 1
  122   114    18 1
  123   115    17 1
  124   116     9 1
  125   117     2 1
  126   118    52 1
  127   119    52 1
  128   120    52 1
  129   121    51 1
  130   122    50 1
  131   123    50 1
  132   124    49 1
  133   125    49 1
  134   126    48 1
  135   127    48 1
  136   128    43 1
  137   129    43 1
  138   130    43 1
  139   131    39 1
  140   132    32 1
  141   133    31 1
  142   134    61 1
  143   135    56 1
  144   136    24 1
  145   137    24 1
  146   139   138 1
  147   140   139 1
  148   141   140 1
  149   142   140 1
  150   143   142 1
  151   144   138 1
  152   144   143 1
  153   145   144 1
  154   146   145 1
  155   147   146 1
  156   148   147 1
  157   149   148 1
  158   150   149 1
  159   151   150 1
  160   152   151 1
  161   153   152 1
  162   154   138 1
  163   155   138 1
  164   156   143 1
  165   157   147 1
  166   158   151 1
  167   160   159 1
  168   161   160 1
  169   162   161 1
  170   163   161 1
  171   164   163 1
  172   165   159 1
  173   165   164 1
  174   166   165 1
  175   167   166 1
  176   168   167 1
  177   169   168 1
  178   170   169 1
  179   171   170 1
  180   172   171 1
  181   173   172 1
  182   174   153 1
  183   174   173 1
  184   175   159 1
  185   176   159 1
  186   177   164 1
  187   178   168 1
  188   179   172 1
  189   180   179 1
  190   181   179 1
  191   182   179 1
  192   183   178 1
  193   184   178 1
  194   185   178 1
  195   186   177 1
  196   187   177 1
  197   188   177 1
  198   189   176 1
  199   190   176 1
  200   191   176 1
  201   192   175 1
  202   193   175 1
  203   194   175 1
  204   195   160 1
  205   196   160 1
  206   197   158 1
  207   198   158 1
  208   199   158 1
  209   200   157 1
  210   201   157 1
  211   202   157 1
  212   203   156 1
  213   204   156 1
  214   205   156 1
  215   206   155 1
  216   207   155 1
  217   208   155 1
  218   209   154 1
  219   210   154 1
  220   211   154 1
  221   212   141 1
  222   213   146 1
  223   214   145 1
  224   215   142 1
  225   216   142 1
  226   217   174 1
  227   218   173 1
  228   219   171 1
  229   220   170 1
  230   221   169 1
  231   222   140 1
  232   223   167 1
  233   224   166 1
  234   225   165 1
  235   226   163 1
  236   227   161 1
  237   228   139 1
  238   229   139 1
  239   230   153 1
  240   231   152 1
  241   232   150 1
  242   233   149 1
  243   234   148 1
  244   235   162 1
  245   65    153 1
  246   65    174 1
@<TRIPOS>SUBSTRUCTURE
      1 CLA               1 ****               0 ****  **** 
      2 LUT             138 ****               0 ****  **** 
