@<TRIPOS>MOLECULE
Cpptraj generated mol2 file.
  235   246     2     0     0
SMALL
USER_CHARGES


@<TRIPOS>ATOM
      1 CAA        77.6819   58.4161   35.7598 a2         1 CLA     -0.055900
      2 CAB        77.6620   61.9682   44.8915 c8         1 CLA     -0.148500
      3 CAC        70.9392   58.0188   44.1988 a2         1 CLA     -0.012600
      4 CAD        73.8828   55.4349   37.0361 ck         1 CLA      0.398800
      5 NA         76.8250   58.7387   39.2034 ns         1 CLA     -0.225500
      6 CBA        78.8979   58.4428   34.7934 a2         1 CLA     -0.135000
      7 CBB        77.5543   61.1612   45.9640 c0         1 CLA     -0.395200
      8 CBC        71.0070   56.4742   44.0316 a3         1 CLA     -0.037700
      9 CBD        75.4079   55.9862   36.8050 a1         1 CLA     -0.053900
     10 NB         76.6724   60.3862   41.6760 nm         1 CLA     -0.295700
     11 OBD        73.3887   54.5194   36.4549 o2         1 CLA     -0.494600
     12 CGA        79.4926   57.0714   34.3382 c4         1 CLA      0.827000
     13 CGD        76.4674   54.9527   36.9488 c4         1 CLA      0.655300
     14 ND         74.0680   57.8084   39.6291 nm         1 CLA     -0.291600
     15 CED        77.2207   53.2680   38.3540 a3         1 CLA      0.005400
     16 CHA        75.6162   57.1355   37.7881 cs         1 CLA     -0.123800
     17 CHB        78.5544   60.2794   40.1267 aa         1 CLA     -0.291900
     18 CHC        75.2425   60.5975   43.7327 aa         1 CLA     -0.090400
     19 CHD        72.2020   57.7678   41.2838 aa         1 CLA     -0.052000
     20 CMA        80.2019   58.2816   38.6498 a3         1 CLA     -0.230700
     21 CMB        79.9951   61.9727   42.4463 a3         1 CLA     -0.180800
     22 CMC        72.8482   60.1736   45.5739 a3         1 CLA     -0.134000
     23 CMD        70.9075   55.7785   39.0562 a3         1 CLA     -0.141100
     24 C1         80.6835   55.1062   35.1779 a2         1 CLA      0.023000
     25 C1A        76.7787   57.9013   38.1024 ac         1 CLA     -0.015100
     26 C1B        77.9538   60.7548   41.3344 cr         1 CLA      0.054700
     27 C1C        74.0599   60.0102   43.2904 cn         1 CLA     -0.005600
     28 C1D        72.8241   57.3217   40.0155 ap         1 CLA     -0.047300
     29 O1A        79.4485   56.5988   33.2017 o2         1 CLA     -0.610800
     30 O1D        77.3212   54.7416   36.1387 o2         1 CLA     -0.558200
     31 C2         81.3818   54.6684   36.4657 c8         1 CLA     -0.325100
     32 C2A        78.0101   57.9462   37.2338 a1         1 CLA      0.098600
     33 C2B        78.5618   61.4907   42.4535 cb         1 CLA      0.088500
     34 C2C        72.9598   59.6841   44.1591 cb         1 CLA      0.053700
     35 C2D        72.2803   56.4464   39.0263 cb         1 CLA      0.058900
     36 O2A        80.0650   56.4416   35.3405 o1         1 CLA     -0.437200
     37 O2D        76.2503   54.2980   38.0551 o1         1 CLA     -0.357600
     38 C3         82.1609   53.6336   36.5927 c5         1 CLA      0.031200
     39 C3A        78.9388   58.9502   38.0387 a1         1 CLA      0.166800
     40 C3B        77.5967   61.4423   43.5150 cb         1 CLA      0.035000
     41 C3C        72.1466   58.7775   43.5670 cb         1 CLA     -0.089900
     42 C3D        73.3567   56.2622   38.1426 cb         1 CLA     -0.035900
     43 C4         81.7630   52.2330   37.1161 a3         1 CLA     -0.053300
     44 C4A        78.0177   59.4348   39.1037 ac         1 CLA      0.001800
     45 C4B        76.4553   60.7885   42.9825 cn         1 CLA     -0.020900
     46 C4C        72.7706   58.5826   42.2091 cr         1 CLA     -0.044400
     47 C4D        74.3889   57.0941   38.5415 c6         1 CLA     -0.046000
     48 C5         83.6201   53.8996   36.4981 a2         1 CLA     -0.070400
     49 C6         84.1739   55.3350   36.6361 a2         1 CLA      0.043900
     50 C7         84.1085   55.8569   38.0529 a2         1 CLA     -0.150000
     51 C8         84.3570   57.3465   38.2054 a1         1 CLA      0.064200
     52 C9         85.4987   57.8881   37.2830 a3         1 CLA     -0.259300
     53 C10        84.6942   57.7606   39.7299 a2         1 CLA     -0.071900
     54 C11        83.4778   57.8060   40.6656 a2         1 CLA      0.014500
     55 C12        83.6216   58.6955   41.9298 a2         1 CLA     -0.112100
     56 C13        84.6426   58.3206   42.9731 a1         1 CLA      0.089200
     57 C14        84.5037   56.9090   43.5564 a3         1 CLA     -0.239100
     58 C15        84.7156   59.4057   44.0298 a2         1 CLA     -0.102200
     59 C16        83.3817   59.8043   44.7841 a2         1 CLA      0.023900
     60 C17        83.7532   60.7425   45.9809 a2         1 CLA     -0.105700
     61 C18        82.5884   60.9613   47.0864 a1         1 CLA      0.206800
     62 C19        83.0404   61.6642   48.3438 a3         1 CLA     -0.280100
     63 C20        81.4234   61.7439   46.4911 a3         1 CLA     -0.280100
     64 NC         73.8567   59.3948   42.0508 nx         1 CLA     -0.309200
     65 MG         75.2992   59.1809   40.5812 mg         1 CLA      0.895000
     66 HMD3       70.7297   55.5763   40.0408 dc         1 CLA      0.064300
     67 HMD2       70.1495   56.3725   38.6085 dc         1 CLA      0.064300
     68 HMD1       70.8733   54.8267   38.5762 dc         1 CLA      0.064300
     69 HMC3       73.7828   59.9441   46.0446 dc         1 CLA      0.052100
     70 HMC2       72.8449   61.2704   45.6672 dc         1 CLA      0.052100
     71 HMC1       72.0950   59.7237   46.2541 dc         1 CLA      0.052100
     72 HMB3       79.9501   62.8793   41.8855 dc         1 CLA      0.063600
     73 HMB2       80.4169   62.1166   43.4611 dc         1 CLA      0.063600
     74 HMB1       80.7216   61.3083   41.9635 dc         1 CLA      0.063600
     75 HMA3       80.8190   57.9327   37.8892 dc         1 CLA      0.058300
     76 HMA2       80.8538   59.0488   39.1222 dc         1 CLA      0.058300
     77 HMA1       80.0067   57.3457   39.2555 dc         1 CLA      0.058300
     78 HED3       77.0360   52.7516   39.2903 dc         1 CLA      0.079300
     79 HED2       77.1294   52.5078   37.5276 dc         1 CLA      0.079300
     80 HED1       78.2399   53.6156   38.4937 dc         1 CLA      0.079300
     81 HBC3       70.2134   56.0376   44.5976 dc         1 CLA      0.016300
     82 HBC2       70.8054   56.2718   42.9868 dc         1 CLA      0.016300
     83 HBC1       72.0099   56.1313   44.3376 dc         1 CLA      0.016300
     84 HBB2       77.5908   61.4815   47.0050 da         1 CLA      0.183000
     85 HBB1       77.1355   60.1207   45.7874 da         1 CLA      0.183000
     86 HBA2       78.6144   58.8982   33.8335 dc         1 CLA      0.029400
     87 HBA1       79.7637   58.9087   35.2739 dc         1 CLA      0.029400
     88 HAC2       70.8047   58.2620   45.2524 dc         1 CLA      0.029300
     89 HAC1       70.0227   58.4009   43.7332 dc         1 CLA      0.029300
     90 HAA2       76.8557   57.8497   35.3262 dc         1 CLA      0.028700
     91 HAA1       77.3376   59.4351   35.8183 dc         1 CLA      0.028700
     92 H203       80.9864   61.0968   45.7089 dc         1 CLA      0.065600
     93 H202       80.6912   61.8967   47.2069 dc         1 CLA      0.065600
     94 H201       81.6585   62.7244   46.0867 dc         1 CLA      0.065600
     95 H193       83.5498   62.6325   48.1463 dc         1 CLA      0.065600
     96 H192       82.1970   61.8733   49.0055 dc         1 CLA      0.065600
     97 H191       83.7750   61.0555   48.9125 dc         1 CLA      0.065600
     98 H172       84.5603   60.2438   46.5717 dc         1 CLA      0.027600
     99 H171       84.0690   61.6717   45.5116 dc         1 CLA      0.027600
    100 H162       82.5902   60.2420   44.1094 dc         1 CLA      0.002900
    101 H161       82.9064   58.8884   45.0864 dc         1 CLA      0.002900
    102 H152       85.3576   58.9873   44.7952 dc         1 CLA      0.029100
    103 H151       85.1180   60.2987   43.5256 dc         1 CLA      0.029100
    104 H143       83.5839   56.7959   44.0431 dc         1 CLA      0.063600
    105 H142       84.7425   56.1491   42.8226 dc         1 CLA      0.063600
    106 H141       85.2995   56.8322   44.1598 dc         1 CLA      0.063600
    107 H122       83.7729   59.7807   41.7373 dc         1 CLA      0.032500
    108 H121       82.6372   58.6168   42.4396 dc         1 CLA      0.032500
    109 H112       82.6056   58.1055   40.2115 dc         1 CLA      0.006600
    110 H111       83.2748   56.8107   41.0287 dc         1 CLA      0.006600
    111 H102       85.4614   57.0347   40.1300 dc         1 CLA      0.024100
    112 H101       85.0957   58.7710   39.8476 dc         1 CLA      0.024100
    113 HHD        71.2525   57.4739   41.3672 da         1 CLA      0.174300
    114 HHC        75.2730   60.9882   44.7729 da         1 CLA      0.136800
    115 HHB        79.5314   60.7505   40.1250 da         1 CLA      0.138300
    116 HBD        75.4754   56.3365   35.7781 dc         1 CLA      0.107700
    117 HAB        77.9266   62.9603   45.0471 da         1 CLA      0.155200
    118 H93        86.4884   57.5642   37.5894 dc         1 CLA      0.069500
    119 H92        85.5113   57.4997   36.2785 dc         1 CLA      0.069500
    120 H91        85.4585   58.9675   37.3344 dc         1 CLA      0.069500
    121 H8         83.4477   57.8505   37.8051 dc         1 CLA      0.029300
    122 H72        83.1325   55.5880   38.4359 dc         1 CLA      0.044400
    123 H71        84.9158   55.3650   38.6036 dc         1 CLA      0.044400
    124 H62        85.2172   55.2756   36.4436 dc         1 CLA      0.015600
    125 H61        83.5674   55.9776   35.9921 dc         1 CLA      0.015600
    126 H52        84.1178   53.2127   37.1995 dc         1 CLA      0.033200
    127 H51        83.9442   53.6241   35.5160 dc         1 CLA      0.033200
    128 H43        80.6986   52.1924   37.2349 dc         1 CLA      0.037000
    129 H42        82.0141   51.4562   36.3124 dc         1 CLA      0.037000
    130 H41        82.2804   51.9858   37.9812 dc         1 CLA      0.037000
    131 H3A        79.2732   59.7677   37.3300 dc         1 CLA      0.041100
    132 H2A        78.3483   56.9458   37.1527 dc         1 CLA      0.083100
    133 H2         81.0598   55.2384   37.3561 da         1 CLA      0.180900
    134 H18        82.3021   59.9775   47.3485 dc         1 CLA     -0.003900
    135 H13        85.5560   58.4073   42.3528 dc         1 CLA      0.019700
    136 H12        79.8898   54.3690   35.0198 dc         1 CLA      0.120400
    137 H11        81.3390   55.2598   34.4034 dc         1 CLA      0.120400
    138 C1         68.0584   61.5417   51.4327 Z1         2 LUT      0.509236
    139 C2         66.6802   61.3570   52.1675 Z2         2 LUT     -0.434695
    140 C3         65.7207   62.5684   52.4573 Z3         2 LUT      0.437453
    141 O3         65.8636   63.1955   53.7503 S1         2 LUT     -0.547129
    142 C4         65.9869   63.6871   51.5294 Z4         2 LUT     -0.468603
    143 C5         66.5769   63.2645   50.2806 Z5         2 LUT      0.279246
    144 C6         67.6874   62.4230   50.1532 Z6         2 LUT     -0.305473
    145 C7         68.1842   62.0116   48.8345 Z7         2 LUT      0.069402
    146 C8         68.9567   62.6783   47.9652 Z8         2 LUT     -0.191631
    147 C9         69.5632   62.3615   46.6749 Z9         2 LUT      0.196698
    148 C10        70.4432   63.1763   46.0053 Y1         2 LUT     -0.208611
    149 C11        71.0750   62.9856   44.7417 Y2         2 LUT      0.030784
    150 C12        72.2026   63.6452   44.5013 Y3         2 LUT     -0.220316
    151 C13        73.1382   63.4224   43.3208 Y4         2 LUT      0.215937
    152 C14        74.4029   63.8154   43.4144 Y5         2 LUT     -0.185793
    153 C15        75.4177   63.7703   42.4596 Y6         2 LUT     -0.057835
    154 C16        68.7560   60.2328   51.1243 Y7         2 LUT     -0.405615
    155 C17        68.9130   62.3027   52.5105 Y7         2 LUT     -0.405615
    156 C18        65.8594   63.8937   49.1243 Y9         2 LUT     -0.369639
    157 C19        69.1034   61.0901   45.9177 W1         2 LUT     -0.333362
    158 C20        72.5933   62.8010   42.0693 W2         2 LUT     -0.323439
    159 C21        86.6149   65.2850   35.8724 Z1         2 LUT      0.406104
    160 C22        87.1105   64.5732   34.6178 Z2         2 LUT     -0.404965
    161 C23        87.3097   65.5504   33.3809 Z3         2 LUT      0.391255
    162 O23        87.9525   64.7386   32.3172 S1         2 LUT     -0.528210
    163 C24        86.0158   66.2453   33.0464 W6         2 LUT     -0.258361
    164 C25        84.9599   66.3519   33.9064 Z5         2 LUT      0.133546
    165 C26        85.0704   65.7103   35.3177 W8         2 LUT     -0.147008
    166 C27        84.2437   66.4149   36.4632 Z7         2 LUT      0.023843
    167 C28        83.1086   65.9826   37.0596 Z8         2 LUT     -0.216987
    168 C29        82.5238   66.5696   38.2897 Z9         2 LUT      0.206524
    169 C30        81.4039   65.9618   38.9063 Y1         2 LUT     -0.215556
    170 C31        80.6468   66.2364   40.0900 Y2         2 LUT      0.025142
    171 C32        79.5441   65.4832   40.4305 Y3         2 LUT     -0.212209
    172 C33        78.6303   65.5977   41.5082 Y4         2 LUT      0.240937
    173 C34        77.6101   64.6851   41.6399 Y5         2 LUT     -0.218862
    174 C35        76.5428   64.5602   42.5690 Y6         2 LUT     -0.023547
    175 C36        87.5689   66.3933   36.4094 Y7         2 LUT     -0.393485
    176 C37        86.3963   64.2683   36.9247 Y7         2 LUT     -0.393485
    177 C38        83.6097   66.9997   33.5768 Y9         2 LUT     -0.387526
    178 C39        83.1673   67.8814   38.8381 W1         2 LUT     -0.322618
    179 C40        79.0288   66.4528   42.7059 W2         2 LUT     -0.358472
    180 H403       78.7390   65.9416   43.5947 R7         2 LUT      0.097720
    181 H402       80.1114   66.6244   42.8773 R7         2 LUT      0.097720
    182 H401       78.5092   67.4188   42.7216 R7         2 LUT      0.097720
    183 H393       83.5074   68.4226   37.9853 R4         2 LUT      0.082505
    184 H392       82.4988   68.4612   39.4583 R4         2 LUT      0.082505
    185 H391       83.9622   67.5934   39.5400 R4         2 LUT      0.082505
    186 H383       83.5899   67.3032   32.4776 R1         2 LUT      0.104030
    187 H382       82.8153   66.2461   33.5030 R1         2 LUT      0.104030
    188 H381       83.3106   67.8559   34.1509 R1         2 LUT      0.104030
    189 H373       87.2121   63.8879   37.3977 T4         2 LUT      0.089537
    190 H372       85.9253   64.7839   37.7405 T4         2 LUT      0.089537
    191 H371       85.7217   63.5456   36.5701 T4         2 LUT      0.089537
    192 H363       87.7391   67.2995   35.8151 T4         2 LUT      0.089537
    193 H362       87.3581   66.7295   37.4061 T4         2 LUT      0.089537
    194 H361       88.6136   66.0536   36.5610 T4         2 LUT      0.089537
    195 H222       88.0587   64.1351   34.7755 U2         2 LUT      0.127376
    196 H221       86.3700   63.8221   34.2463 U2         2 LUT      0.127376
    197 H203       73.1845   63.0410   41.1973 R7         2 LUT      0.087068
    198 H202       72.5308   61.7454   42.2175 R7         2 LUT      0.087068
    199 H201       71.5906   63.1539   41.8698 R7         2 LUT      0.087068
    200 H193       68.5634   61.3879   44.9791 R4         2 LUT      0.089716
    201 H192       69.7759   60.3415   45.6318 R4         2 LUT      0.089716
    202 H191       68.3009   60.5499   46.4596 R4         2 LUT      0.089716
    203 H183       65.9731   65.0086   49.1091 R1         2 LUT      0.094572
    204 H182       66.4319   63.6324   48.1923 R1         2 LUT      0.094572
    205 H181       64.8854   63.5083   49.0380 R1         2 LUT      0.094572
    206 H173       69.1095   61.8647   53.5461 T4         2 LUT      0.093752
    207 H172       69.9603   62.6289   52.2266 T4         2 LUT      0.093752
    208 H171       68.3214   63.1712   52.8012 T4         2 LUT      0.093752
    209 H163       69.0393   59.7240   52.0631 T4         2 LUT      0.093752
    210 H162       68.1202   59.5331   50.5437 T4         2 LUT      0.093752
    211 H161       69.6597   60.4747   50.6520 T4         2 LUT      0.093752
    212 HO3        65.2100   62.7595   54.3331 Q1         2 LUT      0.300121
    213 H8         69.4125   63.5615   48.3134 U7         2 LUT      0.080784
    214 H7         67.8291   61.1129   48.4660 U6         2 LUT      0.042190
    215 H42        65.0901   64.3734   51.4304 U5         2 LUT      0.145166
    216 H41        66.6931   64.4332   51.9411 U5         2 LUT      0.145166
    217 H35        76.6934   65.0973   43.5798 T3         2 LUT      0.077919
    218 H34        77.6777   63.9071   40.8711 T2         2 LUT      0.073626
    219 H32        79.2350   64.6560   39.7372 T1         2 LUT      0.092510
    220 H31        80.9555   67.0711   40.7460 U9         2 LUT      0.070048
    221 H30        81.0921   65.0295   38.5056 U8         2 LUT      0.085442
    222 H3         64.7322   62.2052   52.1185 U3         2 LUT     -0.031596
    223 H28        82.6011   65.0937   36.6540 U7         2 LUT      0.084728
    224 H27        84.7689   67.2792   36.9488 U6         2 LUT      0.087291
    225 H26        84.4941   64.7767   35.1865 Q6         2 LUT      0.075325
    226 H24        85.7990   66.6736   32.0589 Q5         2 LUT      0.094482
    227 H23        88.0842   66.2888   33.7138 U3         2 LUT     -0.024869
    228 H22        66.1425   60.6958   51.4552 U2         2 LUT      0.127376
    229 H21        66.7631   60.6880   53.0574 U2         2 LUT      0.127376
    230 H15        75.4166   63.1399   41.5258 T3         2 LUT      0.093200
    231 H14        74.5596   64.4646   44.2712 T2         2 LUT      0.068865
    232 H12        72.6093   64.1918   45.3260 T1         2 LUT      0.095507
    233 H11        70.6404   62.3817   43.9831 U9         2 LUT      0.068930
    234 H10        70.6793   64.1328   46.5510 U8         2 LUT      0.083911
    235 H1         87.3166   64.3710   31.6592 Q1         2 LUT      0.297311
@<TRIPOS>BOND
    1     6     1 1
    2     7     2 1
    3     8     3 1
    4     9     4 1
    5    11     4 1
    6    12     6 1
    7    13     9 1
    8    16     9 1
    9    25     5 1
   10    25    16 1
   11    26    10 1
   12    26    17 1
   13    27    18 1
   14    28    14 1
   15    28    19 1
   16    29    12 1
   17    30    13 1
   18    31    24 1
   19    32     1 1
   20    32    25 1
   21    33    21 1
   22    33    26 1
   23    34    22 1
   24    34    27 1
   25    35    23 1
   26    35    28 1
   27    36    12 1
   28    36    24 1
   29    37    13 1
   30    37    15 1
   31    38    31 1
   32    39    20 1
   33    39    32 1
   34    40     2 1
   35    40    33 1
   36    41     3 1
   37    41    34 1
   38    42     4 1
   39    42    35 1
   40    43    38 1
   41    44     5 1
   42    44    17 1
   43    44    39 1
   44    45    10 1
   45    45    18 1
   46    45    40 1
   47    46    19 1
   48    46    41 1
   49    47    14 1
   50    47    16 1
   51    47    42 1
   52    48    38 1
   53    49    48 1
   54    50    49 1
   55    51    50 1
   56    52    51 1
   57    53    51 1
   58    54    53 1
   59    55    54 1
   60    56    55 1
   61    57    56 1
   62    58    56 1
   63    59    58 1
   64    60    59 1
   65    61    60 1
   66    62    61 1
   67    63    61 1
   68    64    27 1
   69    64    46 1
   70    65     5 1
   71    65    10 1
   72    65    64 1
   73    65    14 1
   74    66    23 1
   75    67    23 1
   76    68    23 1
   77    69    22 1
   78    70    22 1
   79    71    22 1
   80    72    21 1
   81    73    21 1
   82    74    21 1
   83    75    20 1
   84    76    20 1
   85    77    20 1
   86    78    15 1
   87    79    15 1
   88    80    15 1
   89    81     8 1
   90    82     8 1
   91    83     8 1
   92    84     7 1
   93    85     7 1
   94    86     6 1
   95    87     6 1
   96    88     3 1
   97    89     3 1
   98    90     1 1
   99    91     1 1
  100    92    63 1
  101    93    63 1
  102    94    63 1
  103    95    62 1
  104    96    62 1
  105    97    62 1
  106    98    60 1
  107    99    60 1
  108   100    59 1
  109   101    59 1
  110   102    58 1
  111   103    58 1
  112   104    57 1
  113   105    57 1
  114   106    57 1
  115   107    55 1
  116   108    55 1
  117   109    54 1
  118   110    54 1
  119   111    53 1
  120   112    53 1
  121   113    19 1
  122   114    18 1
  123   115    17 1
  124   116     9 1
  125   117     2 1
  126   118    52 1
  127   119    52 1
  128   120    52 1
  129   121    51 1
  130   122    50 1
  131   123    50 1
  132   124    49 1
  133   125    49 1
  134   126    48 1
  135   127    48 1
  136   128    43 1
  137   129    43 1
  138   130    43 1
  139   131    39 1
  140   132    32 1
  141   133    31 1
  142   134    61 1
  143   135    56 1
  144   136    24 1
  145   137    24 1
  146   139   138 1
  147   140   139 1
  148   141   140 1
  149   142   140 1
  150   143   142 1
  151   144   138 1
  152   144   143 1
  153   145   144 1
  154   146   145 1
  155   147   146 1
  156   148   147 1
  157   149   148 1
  158   150   149 1
  159   151   150 1
  160   152   151 1
  161   153   152 1
  162   154   138 1
  163   155   138 1
  164   156   143 1
  165   157   147 1
  166   158   151 1
  167   160   159 1
  168   161   160 1
  169   162   161 1
  170   163   161 1
  171   164   163 1
  172   165   159 1
  173   165   164 1
  174   166   165 1
  175   167   166 1
  176   168   167 1
  177   169   168 1
  178   170   169 1
  179   171   170 1
  180   172   171 1
  181   173   172 1
  182   174   153 1
  183   174   173 1
  184   175   159 1
  185   176   159 1
  186   177   164 1
  187   178   168 1
  188   179   172 1
  189   180   179 1
  190   181   179 1
  191   182   179 1
  192   183   178 1
  193   184   178 1
  194   185   178 1
  195   186   177 1
  196   187   177 1
  197   188   177 1
  198   189   176 1
  199   190   176 1
  200   191   176 1
  201   192   175 1
  202   193   175 1
  203   194   175 1
  204   195   160 1
  205   196   160 1
  206   197   158 1
  207   198   158 1
  208   199   158 1
  209   200   157 1
  210   201   157 1
  211   202   157 1
  212   203   156 1
  213   204   156 1
  214   205   156 1
  215   206   155 1
  216   207   155 1
  217   208   155 1
  218   209   154 1
  219   210   154 1
  220   211   154 1
  221   212   141 1
  222   213   146 1
  223   214   145 1
  224   215   142 1
  225   216   142 1
  226   217   174 1
  227   218   173 1
  228   219   171 1
  229   220   170 1
  230   221   169 1
  231   222   140 1
  232   223   167 1
  233   224   166 1
  234   225   165 1
  235   226   163 1
  236   227   161 1
  237   228   139 1
  238   229   139 1
  239   230   153 1
  240   231   152 1
  241   232   150 1
  242   233   149 1
  243   234   148 1
  244   235   162 1
  245   65    153 1
  246   65    174 1
@<TRIPOS>SUBSTRUCTURE
      1 CLA               1 ****               0 ****  **** 
      2 LUT             138 ****               0 ****  **** 
