@<TRIPOS>MOLECULE
Cpptraj generated mol2 file.
  235   246     2     0     0
SMALL
USER_CHARGES


@<TRIPOS>ATOM
      1 CAA        79.9937   59.0773   33.6594 a2         1 CLA     -0.055900
      2 CAB        79.5730   62.2959   42.7700 c8         1 CLA     -0.148500
      3 CAC        72.7265   58.0920   42.0207 a2         1 CLA     -0.012600
      4 CAD        76.0898   56.0026   34.7748 ck         1 CLA      0.398800
      5 NA         78.9088   59.3341   36.9562 ns         1 CLA     -0.225500
      6 CBA        81.2597   58.8675   32.7170 a2         1 CLA     -0.135000
      7 CBB        80.7020   62.0233   43.4595 c0         1 CLA     -0.395200
      8 CBC        72.7075   56.5447   41.9387 a3         1 CLA     -0.037700
      9 CBD        77.4322   56.8036   34.4105 a1         1 CLA     -0.053900
     10 NB         78.5632   60.5867   39.6595 nm         1 CLA     -0.295700
     11 OBD        75.6917   55.0238   34.1522 o2         1 CLA     -0.494600
     12 CGA        81.7564   57.4898   32.3529 c4         1 CLA      0.827000
     13 CGD        78.5158   55.7661   34.1808 c4         1 CLA      0.655300
     14 ND         76.1082   58.0683   37.6192 nm         1 CLA     -0.291600
     15 CED        79.4644   53.7169   35.0260 a3         1 CLA      0.005400
     16 CHA        77.6505   57.6983   35.6604 cs         1 CLA     -0.123800
     17 CHB        80.5628   60.7514   38.1328 aa         1 CLA     -0.291900
     18 CHC        77.1312   60.6609   41.7051 aa         1 CLA     -0.090400
     19 CHD        74.0998   57.9166   39.0756 aa         1 CLA     -0.052000
     20 CMA        82.4214   58.7304   36.4538 a3         1 CLA     -0.230700
     21 CMB        81.8214   62.2834   40.4478 a3         1 CLA     -0.180800
     22 CMC        74.7126   60.0286   43.7320 a3         1 CLA     -0.134000
     23 CMD        73.2720   55.7906   36.7793 a3         1 CLA     -0.141100
     24 C1         83.0440   55.5074   33.2513 a2         1 CLA      0.023000
     25 C1A        78.7612   58.5942   35.8492 ac         1 CLA     -0.015100
     26 C1B        79.8950   61.0051   39.3368 cr         1 CLA      0.054700
     27 C1C        75.9838   59.8914   41.4435 cn         1 CLA     -0.005600
     28 C1D        74.7984   57.5877   37.8871 ap         1 CLA     -0.047300
     29 O1A        81.6576   56.9892   31.2688 o2         1 CLA     -0.610800
     30 O1D        79.3242   55.8004   33.2307 o2         1 CLA     -0.558200
     31 C2         83.7816   55.0836   34.4147 c8         1 CLA     -0.325100
     32 C2A        80.1435   58.5610   35.0563 a1         1 CLA      0.098600
     33 C2B        80.4442   61.6948   40.4254 cb         1 CLA      0.088500
     34 C2C        74.8416   59.5831   42.3148 cb         1 CLA      0.053700
     35 C2D        74.4596   56.5877   36.8759 cb         1 CLA      0.058900
     36 O2A        82.6116   56.9275   33.3289 o1         1 CLA     -0.437200
     37 O2D        78.4649   54.8037   35.1409 o1         1 CLA     -0.357600
     38 C3         84.9384   54.4803   34.5065 c5         1 CLA      0.031200
     39 C3A        81.1118   59.4808   35.9116 a1         1 CLA      0.166800
     40 C3B        79.4741   61.6851   41.4117 cb         1 CLA      0.035000
     41 C3C        73.9741   58.7963   41.5868 cb         1 CLA     -0.089900
     42 C3D        75.5525   56.6161   35.9635 cb         1 CLA     -0.035900
     43 C4         85.1555   52.9332   34.5858 a3         1 CLA     -0.053300
     44 C4A        80.1706   59.8953   37.1139 ac         1 CLA      0.001800
     45 C4B        78.3359   60.9387   40.9167 cn         1 CLA     -0.020900
     46 C4C        74.5993   58.6560   40.2159 cr         1 CLA     -0.044400
     47 C4D        76.4699   57.5679   36.4678 c6         1 CLA     -0.046000
     48 C5         86.2489   55.3161   34.5892 a2         1 CLA     -0.070400
     49 C6         86.2264   56.4000   35.6542 a2         1 CLA      0.043900
     50 C7         86.7622   55.7873   37.0611 a2         1 CLA     -0.150000
     51 C8         86.8419   56.8022   38.2833 a1         1 CLA      0.064200
     52 C9         88.1161   57.5751   37.9862 a3         1 CLA     -0.259300
     53 C10        87.0106   56.0197   39.6331 a2         1 CLA     -0.071900
     54 C11        87.5695   56.7247   40.8830 a2         1 CLA      0.014500
     55 C12        87.7246   55.8850   42.1372 a2         1 CLA     -0.112100
     56 C13        88.3741   56.6215   43.2848 a1         1 CLA      0.089200
     57 C14        89.9120   56.5512   43.1796 a3         1 CLA     -0.239100
     58 C15        87.8942   55.9800   44.6383 a2         1 CLA     -0.102200
     59 C16        86.4580   56.1246   45.1306 a2         1 CLA      0.023900
     60 C17        86.0248   57.5927   45.2837 a2         1 CLA     -0.105700
     61 C18        84.4904   57.7571   45.7070 a1         1 CLA      0.206800
     62 C19        83.9923   56.9069   46.8939 a3         1 CLA     -0.280100
     63 C20        83.9979   59.2372   45.7123 a3         1 CLA     -0.280100
     64 NC         75.8072   59.3634   40.1663 nx         1 CLA     -0.309200
     65 MG         77.2686   59.4941   38.5211 mg         1 CLA      0.895000
     66 HMD3       73.1518   55.4067   37.7241 dc         1 CLA      0.064300
     67 HMD2       72.4512   56.4595   36.5389 dc         1 CLA      0.064300
     68 HMD1       73.3401   54.9922   36.0126 dc         1 CLA      0.064300
     69 HMC3       73.7233   59.9883   44.1109 dc         1 CLA      0.052100
     70 HMC2       75.3144   59.3872   44.3164 dc         1 CLA      0.052100
     71 HMC1       75.0345   61.0735   43.7648 dc         1 CLA      0.052100
     72 HMB3       81.9956   62.7885   39.5390 dc         1 CLA      0.063600
     73 HMB2       81.9092   63.0210   41.2482 dc         1 CLA      0.063600
     74 HMB1       82.6011   61.5078   40.5320 dc         1 CLA      0.063600
     75 HMA3       82.3282   57.6614   36.6485 dc         1 CLA      0.058300
     76 HMA2       83.2207   58.8838   35.7525 dc         1 CLA      0.058300
     77 HMA1       82.8001   59.1943   37.3401 dc         1 CLA      0.058300
     78 HED3       79.0721   53.0394   34.2500 dc         1 CLA      0.079300
     79 HED2       80.4068   54.2247   34.7257 dc         1 CLA      0.079300
     80 HED1       79.7172   53.3654   35.9292 dc         1 CLA      0.079300
     81 HBC3       71.8307   56.0885   42.3710 dc         1 CLA      0.016300
     82 HBC2       72.8110   56.2724   40.9533 dc         1 CLA      0.016300
     83 HBC1       73.5695   56.1874   42.5016 dc         1 CLA      0.016300
     84 HBB2       80.8333   62.4329   44.4801 da         1 CLA      0.183000
     85 HBB1       81.5323   61.3383   43.0932 da         1 CLA      0.183000
     86 HBA2       80.9269   59.2401   31.7916 dc         1 CLA      0.029400
     87 HBA1       82.0853   59.5256   33.0725 dc         1 CLA      0.029400
     88 HAC2       72.5838   58.2687   43.1374 dc         1 CLA      0.029300
     89 HAC1       71.8237   58.4869   41.5339 dc         1 CLA      0.029300
     90 HAA2       79.1967   58.4618   33.2493 dc         1 CLA      0.028700
     91 HAA1       79.6206   60.1107   33.7174 dc         1 CLA      0.028700
     92 H203       84.3189   59.7129   46.6385 dc         1 CLA      0.065600
     93 H202       84.5456   59.7702   44.9141 dc         1 CLA      0.065600
     94 H201       82.8869   59.3490   45.6289 dc         1 CLA      0.065600
     95 H193       84.0885   57.4510   47.8546 dc         1 CLA      0.065600
     96 H192       82.8976   56.8327   46.8781 dc         1 CLA      0.065600
     97 H191       84.2873   55.9527   46.9605 dc         1 CLA      0.065600
     98 H172       86.6795   57.8528   46.1204 dc         1 CLA      0.027600
     99 H171       86.2277   58.1395   44.3562 dc         1 CLA      0.027600
    100 H162       85.7363   55.5459   44.5394 dc         1 CLA      0.002900
    101 H161       86.4250   55.6777   46.0897 dc         1 CLA      0.002900
    102 H152       87.9762   54.9099   44.5712 dc         1 CLA      0.029100
    103 H151       88.5597   56.3219   45.3812 dc         1 CLA      0.029100
    104 H143       90.3601   56.9985   44.0593 dc         1 CLA      0.063600
    105 H142       90.2999   55.4983   43.1860 dc         1 CLA      0.063600
    106 H141       90.4199   57.1370   42.3939 dc         1 CLA      0.063600
    107 H122       86.6562   55.6102   42.3494 dc         1 CLA      0.032500
    108 H121       88.2504   54.9477   41.9726 dc         1 CLA      0.032500
    109 H112       88.4329   57.3474   40.7105 dc         1 CLA      0.006600
    110 H111       86.6924   57.3713   41.1868 dc         1 CLA      0.006600
    111 H102       85.9937   55.6190   39.8996 dc         1 CLA      0.024100
    112 H101       87.5497   55.0754   39.4741 dc         1 CLA      0.024100
    113 HHD        73.1024   57.4366   39.1618 da         1 CLA      0.174300
    114 HHC        77.0508   61.2798   42.5980 da         1 CLA      0.136800
    115 HHB        81.5351   61.1488   38.1099 da         1 CLA      0.138300
    116 HBD        77.2317   57.4132   33.5553 dc         1 CLA      0.107700
    117 HAB        78.7998   62.9078   43.2105 da         1 CLA      0.155200
    118 H93        88.9968   56.9681   37.9580 dc         1 CLA      0.069500
    119 H92        87.9760   58.0856   37.0687 dc         1 CLA      0.069500
    120 H91        88.2546   58.3898   38.7457 dc         1 CLA      0.069500
    121 H8         85.9705   57.4784   38.3329 dc         1 CLA      0.029300
    122 H72        86.0647   55.0092   37.3055 dc         1 CLA      0.044400
    123 H71        87.7147   55.2510   36.9172 dc         1 CLA      0.044400
    124 H62        86.9128   57.1786   35.3658 dc         1 CLA      0.015600
    125 H61        85.2619   56.7898   35.8418 dc         1 CLA      0.015600
    126 H52        87.0416   54.6873   34.7865 dc         1 CLA      0.033200
    127 H51        86.2253   55.7151   33.5916 dc         1 CLA      0.033200
    128 H43        84.1868   52.4442   34.4705 dc         1 CLA      0.037000
    129 H42        85.7692   52.5498   33.7899 dc         1 CLA      0.037000
    130 H41        85.7203   52.6476   35.5165 dc         1 CLA      0.037000
    131 H3A        81.5065   60.3951   35.3996 dc         1 CLA      0.041100
    132 H2A        80.4177   57.5271   34.9017 dc         1 CLA      0.083100
    133 H2         83.2931   55.3805   35.3538 da         1 CLA      0.180900
    134 H18        83.9820   57.3546   44.8009 dc         1 CLA     -0.003900
    135 H13        88.0934   57.6193   43.3333 dc         1 CLA      0.019700
    136 H12        82.1327   54.9203   33.3138 dc         1 CLA      0.120400
    137 H11        83.6051   55.4022   32.3070 dc         1 CLA      0.120400
    138 C1         68.5728   61.7196   49.0170 Z1         2 LUT      0.509236
    139 C2         67.0585   61.6343   49.3250 Z2         2 LUT     -0.434695
    140 C3         66.4452   62.8991   49.8366 Z3         2 LUT      0.437453
    141 O3         66.5734   63.1782   51.2266 S1         2 LUT     -0.547129
    142 C4         66.7319   64.0702   48.8711 Z4         2 LUT     -0.468603
    143 C5         67.7824   63.8914   47.8642 Z5         2 LUT      0.279246
    144 C6         68.6546   62.8331   47.8868 Z6         2 LUT     -0.305473
    145 C7         69.3175   62.4238   46.5894 Z7         2 LUT      0.069402
    146 C8         70.3700   62.8206   45.9977 Z8         2 LUT     -0.191631
    147 C9         70.9612   62.3345   44.7087 Z9         2 LUT      0.196698
    148 C10        72.0080   63.0653   44.1573 Y1         2 LUT     -0.208611
    149 C11        72.8540   62.8538   42.9815 Y2         2 LUT      0.030784
    150 C12        73.9619   63.5605   42.6439 Y3         2 LUT     -0.220316
    151 C13        74.8382   63.3969   41.4917 Y4         2 LUT      0.215937
    152 C14        75.9952   64.2067   41.4575 Y5         2 LUT     -0.185793
    153 C15        77.1553   64.0843   40.6465 Y6         2 LUT     -0.057835
    154 C16        68.9578   60.3010   48.6469 Y7         2 LUT     -0.405615
    155 C17        69.3037   62.0859   50.2782 Y7         2 LUT     -0.405615
    156 C18        67.5566   64.7723   46.6469 Y9         2 LUT     -0.369639
    157 C19        70.6326   60.9868   44.1092 W1         2 LUT     -0.333362
    158 C20        74.4398   62.6204   40.2478 W2         2 LUT     -0.323439
    159 C21        88.8079   66.1780   35.5388 Z1         2 LUT      0.406104
    160 C22        89.6290   65.7890   34.3512 Z2         2 LUT     -0.404965
    161 C23        89.6250   66.7765   33.2289 Z3         2 LUT      0.391255
    162 O23        90.2818   66.0354   32.0736 S1         2 LUT     -0.528210
    163 C24        88.2659   67.3557   32.9061 W6         2 LUT     -0.258361
    164 C25        87.2190   67.3886   33.8048 Z5         2 LUT      0.133546
    165 C26        87.3671   66.6077   35.1561 W8         2 LUT     -0.147008
    166 C27        86.5847   67.2865   36.2389 Z7         2 LUT      0.023843
    167 C28        85.6556   66.7445   37.0123 Z8         2 LUT     -0.216987
    168 C29        84.9206   67.1031   38.2403 Z9         2 LUT      0.206524
    169 C30        83.7799   66.3487   38.5137 Y1         2 LUT     -0.215556
    170 C31        82.7592   66.4665   39.5084 Y2         2 LUT      0.025142
    171 C32        81.6129   65.7545   39.6178 Y3         2 LUT     -0.212209
    172 C33        80.5905   65.9121   40.5511 Y4         2 LUT      0.240937
    173 C34        79.4700   65.0725   40.3026 Y5         2 LUT     -0.218862
    174 C35        78.2113   64.9158   40.9363 Y6         2 LUT     -0.023547
    175 C36        89.6278   67.3045   36.2210 Y7         2 LUT     -0.393485
    176 C37        88.8166   65.0000   36.4783 Y7         2 LUT     -0.393485
    177 C38        85.8110   67.8587   33.5421 Y9         2 LUT     -0.387526
    178 C39        85.3414   68.1446   39.2246 W1         2 LUT     -0.322618
    179 C40        80.7882   66.7635   41.7763 W2         2 LUT     -0.358472
    180 H403       80.0158   66.6801   42.5935 R7         2 LUT      0.097720
    181 H402       81.7940   66.6610   42.1934 R7         2 LUT      0.097720
    182 H401       80.7122   67.7935   41.4210 R7         2 LUT      0.097720
    183 H393       86.3996   68.4651   39.0907 R4         2 LUT      0.082505
    184 H392       84.8317   69.1091   39.1362 R4         2 LUT      0.082505
    185 H391       85.2749   67.7883   40.2361 R4         2 LUT      0.082505
    186 H383       85.6895   68.7179   32.9164 R1         2 LUT      0.104030
    187 H382       85.3134   67.0145   33.0593 R1         2 LUT      0.104030
    188 H381       85.2115   68.1070   34.4549 R1         2 LUT      0.104030
    189 H373       89.7937   64.9178   36.9110 T4         2 LUT      0.089537
    190 H372       88.0527   65.0574   37.2723 T4         2 LUT      0.089537
    191 H371       88.6541   64.0676   35.8667 T4         2 LUT      0.089537
    192 H363       90.0023   68.0580   35.5046 T4         2 LUT      0.089537
    193 H362       89.1204   67.7536   37.0673 T4         2 LUT      0.089537
    194 H361       90.4766   66.9703   36.7125 T4         2 LUT      0.089537
    195 H222       90.5911   65.4905   34.6343 U2         2 LUT      0.127376
    196 H221       89.1599   64.8473   33.9901 U2         2 LUT      0.127376
    197 H203       75.1152   61.9191   39.8214 R7         2 LUT      0.087068
    198 H202       73.5611   62.0000   40.3791 R7         2 LUT      0.087068
    199 H201       74.0053   63.3044   39.5529 R7         2 LUT      0.087068
    200 H193       70.7460   60.2499   44.8665 R4         2 LUT      0.089716
    201 H192       69.5712   60.9365   43.9244 R4         2 LUT      0.089716
    202 H191       71.1194   60.6045   43.2063 R4         2 LUT      0.089716
    203 H183       67.4826   64.0406   45.8405 R1         2 LUT      0.094572
    204 H182       66.6073   65.3881   46.6180 R1         2 LUT      0.094572
    205 H181       68.4119   65.4414   46.4281 R1         2 LUT      0.094572
    206 H173       70.3406   61.6532   50.1622 T4         2 LUT      0.093752
    207 H172       69.2574   63.2039   50.3928 T4         2 LUT      0.093752
    208 H171       69.0020   61.6769   51.2195 T4         2 LUT      0.093752
    209 H163       69.9836   60.3397   48.2305 T4         2 LUT      0.093752
    210 H162       68.8958   59.5675   49.4442 T4         2 LUT      0.093752
    211 H161       68.2950   59.8830   47.8404 T4         2 LUT      0.093752
    212 HO3        66.1752   62.4575   51.6871 Q1         2 LUT      0.300121
    213 H8         70.9769   63.6617   46.4111 U7         2 LUT      0.080784
    214 H7         68.8288   61.5206   46.2240 U6         2 LUT      0.042190
    215 H42        65.8560   64.5097   48.4696 U5         2 LUT      0.145166
    216 H41        67.1377   64.9650   49.4009 U5         2 LUT      0.145166
    217 H35        77.9584   65.5508   41.7475 T3         2 LUT      0.077919
    218 H34        79.5515   64.5195   39.3407 T2         2 LUT      0.073626
    219 H32        81.3792   65.0867   38.8335 T1         2 LUT      0.092510
    220 H31        82.9469   67.3043   40.2146 U9         2 LUT      0.070048
    221 H30        83.4489   65.7094   37.6520 U8         2 LUT      0.085442
    222 H3         65.3985   62.7074   49.7449 U3         2 LUT     -0.031596
    223 H28        85.2074   65.8261   36.6485 U7         2 LUT      0.084728
    224 H27        87.0832   68.2115   36.3605 U6         2 LUT      0.087291
    225 H26        86.8838   65.6855   34.9782 Q6         2 LUT      0.075325
    226 H24        88.1903   67.7529   31.8987 Q5         2 LUT      0.094482
    227 H23        90.2391   67.6352   33.5029 U3         2 LUT     -0.024869
    228 H22        66.5568   61.3289   48.4484 U2         2 LUT      0.127376
    229 H21        66.8892   60.8660   50.0965 U2         2 LUT      0.127376
    230 H15        77.3302   63.3292   39.9120 T3         2 LUT      0.093200
    231 H14        75.9623   65.0743   42.0660 T2         2 LUT      0.068865
    232 H12        74.3771   64.2724   43.4072 T1         2 LUT      0.095507
    233 H11        72.4931   62.1218   42.3682 U9         2 LUT      0.068930
    234 H10        72.2518   64.1338   44.5498 U8         2 LUT      0.083911
    235 H1         89.7627   65.7159   31.3280 Q1         2 LUT      0.297311
@<TRIPOS>BOND
    1     6     1 1
    2     7     2 1
    3     8     3 1
    4     9     4 1
    5    11     4 1
    6    12     6 1
    7    13     9 1
    8    16     9 1
    9    25     5 1
   10    25    16 1
   11    26    10 1
   12    26    17 1
   13    27    18 1
   14    28    14 1
   15    28    19 1
   16    29    12 1
   17    30    13 1
   18    31    24 1
   19    32     1 1
   20    32    25 1
   21    33    21 1
   22    33    26 1
   23    34    22 1
   24    34    27 1
   25    35    23 1
   26    35    28 1
   27    36    12 1
   28    36    24 1
   29    37    13 1
   30    37    15 1
   31    38    31 1
   32    39    20 1
   33    39    32 1
   34    40     2 1
   35    40    33 1
   36    41     3 1
   37    41    34 1
   38    42     4 1
   39    42    35 1
   40    43    38 1
   41    44     5 1
   42    44    17 1
   43    44    39 1
   44    45    10 1
   45    45    18 1
   46    45    40 1
   47    46    19 1
   48    46    41 1
   49    47    14 1
   50    47    16 1
   51    47    42 1
   52    48    38 1
   53    49    48 1
   54    50    49 1
   55    51    50 1
   56    52    51 1
   57    53    51 1
   58    54    53 1
   59    55    54 1
   60    56    55 1
   61    57    56 1
   62    58    56 1
   63    59    58 1
   64    60    59 1
   65    61    60 1
   66    62    61 1
   67    63    61 1
   68    64    27 1
   69    64    46 1
   70    65     5 1
   71    65    10 1
   72    65    64 1
   73    65    14 1
   74    66    23 1
   75    67    23 1
   76    68    23 1
   77    69    22 1
   78    70    22 1
   79    71    22 1
   80    72    21 1
   81    73    21 1
   82    74    21 1
   83    75    20 1
   84    76    20 1
   85    77    20 1
   86    78    15 1
   87    79    15 1
   88    80    15 1
   89    81     8 1
   90    82     8 1
   91    83     8 1
   92    84     7 1
   93    85     7 1
   94    86     6 1
   95    87     6 1
   96    88     3 1
   97    89     3 1
   98    90     1 1
   99    91     1 1
  100    92    63 1
  101    93    63 1
  102    94    63 1
  103    95    62 1
  104    96    62 1
  105    97    62 1
  106    98    60 1
  107    99    60 1
  108   100    59 1
  109   101    59 1
  110   102    58 1
  111   103    58 1
  112   104    57 1
  113   105    57 1
  114   106    57 1
  115   107    55 1
  116   108    55 1
  117   109    54 1
  118   110    54 1
  119   111    53 1
  120   112    53 1
  121   113    19 1
  122   114    18 1
  123   115    17 1
  124   116     9 1
  125   117     2 1
  126   118    52 1
  127   119    52 1
  128   120    52 1
  129   121    51 1
  130   122    50 1
  131   123    50 1
  132   124    49 1
  133   125    49 1
  134   126    48 1
  135   127    48 1
  136   128    43 1
  137   129    43 1
  138   130    43 1
  139   131    39 1
  140   132    32 1
  141   133    31 1
  142   134    61 1
  143   135    56 1
  144   136    24 1
  145   137    24 1
  146   139   138 1
  147   140   139 1
  148   141   140 1
  149   142   140 1
  150   143   142 1
  151   144   138 1
  152   144   143 1
  153   145   144 1
  154   146   145 1
  155   147   146 1
  156   148   147 1
  157   149   148 1
  158   150   149 1
  159   151   150 1
  160   152   151 1
  161   153   152 1
  162   154   138 1
  163   155   138 1
  164   156   143 1
  165   157   147 1
  166   158   151 1
  167   160   159 1
  168   161   160 1
  169   162   161 1
  170   163   161 1
  171   164   163 1
  172   165   159 1
  173   165   164 1
  174   166   165 1
  175   167   166 1
  176   168   167 1
  177   169   168 1
  178   170   169 1
  179   171   170 1
  180   172   171 1
  181   173   172 1
  182   174   153 1
  183   174   173 1
  184   175   159 1
  185   176   159 1
  186   177   164 1
  187   178   168 1
  188   179   172 1
  189   180   179 1
  190   181   179 1
  191   182   179 1
  192   183   178 1
  193   184   178 1
  194   185   178 1
  195   186   177 1
  196   187   177 1
  197   188   177 1
  198   189   176 1
  199   190   176 1
  200   191   176 1
  201   192   175 1
  202   193   175 1
  203   194   175 1
  204   195   160 1
  205   196   160 1
  206   197   158 1
  207   198   158 1
  208   199   158 1
  209   200   157 1
  210   201   157 1
  211   202   157 1
  212   203   156 1
  213   204   156 1
  214   205   156 1
  215   206   155 1
  216   207   155 1
  217   208   155 1
  218   209   154 1
  219   210   154 1
  220   211   154 1
  221   212   141 1
  222   213   146 1
  223   214   145 1
  224   215   142 1
  225   216   142 1
  226   217   174 1
  227   218   173 1
  228   219   171 1
  229   220   170 1
  230   221   169 1
  231   222   140 1
  232   223   167 1
  233   224   166 1
  234   225   165 1
  235   226   163 1
  236   227   161 1
  237   228   139 1
  238   229   139 1
  239   230   153 1
  240   231   152 1
  241   232   150 1
  242   233   149 1
  243   234   148 1
  244   235   162 1
  245   65    153 1
  246   65    174 1
@<TRIPOS>SUBSTRUCTURE
      1 CLA               1 ****               0 ****  **** 
      2 LUT             138 ****               0 ****  **** 
