@<TRIPOS>MOLECULE
Cpptraj generated mol2 file.
  235   246     2     0     0
SMALL
USER_CHARGES


@<TRIPOS>ATOM
      1 CAA        76.6620   58.3224   32.7204 a2         1 CLA     -0.055900
      2 CAB        77.2007   61.6826   42.0223 c8         1 CLA     -0.148500
      3 CAC        70.0857   57.6441   41.6175 a2         1 CLA     -0.012600
      4 CAD        72.7069   55.4903   34.1637 ck         1 CLA      0.398800
      5 NA         75.8949   58.6692   36.2750 ns         1 CLA     -0.225500
      6 CBA        77.9624   58.2052   31.8227 a2         1 CLA     -0.135000
      7 CBB        78.4755   61.5541   42.5660 c0         1 CLA     -0.395200
      8 CBC        69.9141   56.0868   41.2834 a3         1 CLA     -0.037700
      9 CBD        74.1403   56.1804   33.8170 a1         1 CLA     -0.053900
     10 NB         75.7428   59.9918   38.9249 nm         1 CLA     -0.295700
     11 OBD        72.1408   54.5720   33.5271 o2         1 CLA     -0.494600
     12 CGA        78.1969   56.7606   31.3987 c4         1 CLA      0.827000
     13 CGD        75.1324   55.1086   33.4238 c4         1 CLA      0.655300
     14 ND         73.1553   57.5880   37.0333 nm         1 CLA     -0.291600
     15 CED        76.0158   52.9511   33.9694 a3         1 CLA      0.005400
     16 CHA        74.4663   57.1862   34.9400 cs         1 CLA     -0.123800
     17 CHB        77.5679   60.1369   37.2133 aa         1 CLA     -0.291900
     18 CHC        74.6129   60.0761   41.1358 aa         1 CLA     -0.090400
     19 CHD        71.4184   57.2498   38.6811 aa         1 CLA     -0.052000
     20 CMA        79.1928   58.1748   35.4296 a3         1 CLA     -0.230700
     21 CMB        79.0511   61.8607   39.3303 a3         1 CLA     -0.180800
     22 CMC        72.3122   59.4329   43.2220 a3         1 CLA     -0.134000
     23 CMD        69.9637   55.5131   36.4669 a3         1 CLA     -0.141100
     24 C1         78.9852   54.5847   32.2625 a2         1 CLA      0.023000
     25 C1A        75.6781   57.9461   35.1332 ac         1 CLA     -0.015100
     26 C1B        76.9972   60.4631   38.4416 cr         1 CLA      0.054700
     27 C1C        73.4411   59.3139   40.8628 cn         1 CLA     -0.005600
     28 C1D        71.9825   56.9967   37.4694 ap         1 CLA     -0.047300
     29 O1A        78.1149   56.2852   30.2485 o2         1 CLA     -0.610800
     30 O1D        75.8078   55.1675   32.4140 o2         1 CLA     -0.558200
     31 C2         79.6805   54.2269   33.6373 c8         1 CLA     -0.325100
     32 C2A        76.9142   57.8813   34.2181 a1         1 CLA      0.098600
     33 C2B        77.6977   61.1747   39.5203 cb         1 CLA      0.088500
     34 C2C        72.2936   59.0533   41.7545 cb         1 CLA      0.053700
     35 C2D        71.3951   56.2001   36.4387 cb         1 CLA      0.058900
     36 O2A        78.7761   56.0413   32.4619 o1         1 CLA     -0.437200
     37 O2D        75.1126   54.0927   34.3146 o1         1 CLA     -0.357600
     38 C3         80.5794   53.1967   33.9313 c5         1 CLA      0.031200
     39 C3A        77.8711   58.9055   34.9532 a1         1 CLA      0.166800
     40 C3B        76.8688   61.1478   40.6736 cb         1 CLA      0.035000
     41 C3C        71.3990   58.2456   41.0160 cb         1 CLA     -0.089900
     42 C3D        72.3925   56.1305   35.4896 cb         1 CLA     -0.035900
     43 C4         80.1085   51.9210   34.4158 a3         1 CLA     -0.053300
     44 C4A        77.0560   59.2620   36.1923 ac         1 CLA      0.001800
     45 C4B        75.6671   60.3950   40.2561 cn         1 CLA     -0.020900
     46 C4C        71.9547   58.0290   39.6984 cr         1 CLA     -0.044400
     47 C4D        73.4224   57.0570   35.8655 c6         1 CLA     -0.046000
     48 C5         82.0968   53.3041   33.7064 a2         1 CLA     -0.070400
     49 C6         82.7611   54.5992   34.0278 a2         1 CLA      0.043900
     50 C7         82.8250   54.9404   35.4920 a2         1 CLA     -0.150000
     51 C8         83.3327   56.4326   35.7622 a1         1 CLA      0.064200
     52 C9         84.7734   56.6893   35.1397 a3         1 CLA     -0.259300
     53 C10        83.3771   56.8023   37.3295 a2         1 CLA     -0.071900
     54 C11        82.0774   56.7337   38.2101 a2         1 CLA      0.014500
     55 C12        82.3230   57.2829   39.5957 a2         1 CLA     -0.112100
     56 C13        81.1031   57.3508   40.5631 a1         1 CLA      0.089200
     57 C14        79.9008   58.0600   39.9491 a3         1 CLA     -0.239100
     58 C15        81.5079   57.8524   41.9802 a2         1 CLA     -0.102200
     59 C16        82.0796   59.3063   42.0615 a2         1 CLA      0.023900
     60 C17        82.3634   59.6594   43.6007 a2         1 CLA     -0.105700
     61 C18        83.1753   60.9606   43.7275 a1         1 CLA      0.206800
     62 C19        84.6414   60.8525   43.1685 a3         1 CLA     -0.280100
     63 C20        82.5466   62.2700   43.3377 a3         1 CLA     -0.280100
     64 NC         73.1479   58.7950   39.6313 nx         1 CLA     -0.309200
     65 MG         74.4210   58.8823   37.9183 mg         1 CLA      0.895000
     66 HMD3       69.9631   54.6624   35.7321 dc         1 CLA      0.064300
     67 HMD2       69.6896   55.1192   37.4145 dc         1 CLA      0.064300
     68 HMD1       69.2379   56.2482   36.1541 dc         1 CLA      0.064300
     69 HMC3       71.7343   58.6532   43.7340 dc         1 CLA      0.052100
     70 HMC2       73.2292   59.2581   43.7511 dc         1 CLA      0.052100
     71 HMC1       71.9588   60.4955   43.3642 dc         1 CLA      0.052100
     72 HMB3       79.7901   61.1151   38.8594 dc         1 CLA      0.063600
     73 HMB2       78.8324   62.5928   38.5641 dc         1 CLA      0.063600
     74 HMB1       79.3801   62.3618   40.2484 dc         1 CLA      0.063600
     75 HMA3       79.7910   57.9367   34.5306 dc         1 CLA      0.058300
     76 HMA2       79.8467   58.7576   36.1104 dc         1 CLA      0.058300
     77 HMA1       78.8446   57.2669   35.9391 dc         1 CLA      0.058300
     78 HED3       76.9968   53.1228   34.3206 dc         1 CLA      0.079300
     79 HED2       75.6509   51.9848   34.2711 dc         1 CLA      0.079300
     80 HED1       76.1748   52.8339   32.9184 dc         1 CLA      0.079300
     81 HBC3       70.9030   55.6751   41.2373 dc         1 CLA      0.016300
     82 HBC2       69.3121   55.6741   42.0975 dc         1 CLA      0.016300
     83 HBC1       69.2809   55.8307   40.4078 dc         1 CLA      0.016300
     84 HBB2       78.5913   61.8720   43.6207 da         1 CLA      0.183000
     85 HBB1       79.2921   61.0460   42.0365 da         1 CLA      0.183000
     86 HBA2       77.8672   58.7757   30.9268 dc         1 CLA      0.029400
     87 HBA1       78.8151   58.6324   32.3607 dc         1 CLA      0.029400
     88 HAC2       70.1035   57.6735   42.7280 dc         1 CLA      0.029300
     89 HAC1       69.3093   58.2249   41.2200 dc         1 CLA      0.029300
     90 HAA2       75.9196   57.7596   32.2189 dc         1 CLA      0.028700
     91 HAA1       76.3505   59.3320   32.6614 dc         1 CLA      0.028700
     92 H203       83.2494   63.1263   43.4098 dc         1 CLA      0.065600
     93 H202       82.2095   62.0165   42.2950 dc         1 CLA      0.065600
     94 H201       81.6730   62.4727   43.9889 dc         1 CLA      0.065600
     95 H193       85.2403   61.6965   43.4451 dc         1 CLA      0.065600
     96 H192       85.0942   59.9805   43.6652 dc         1 CLA      0.065600
     97 H191       84.5300   60.7948   42.0934 dc         1 CLA      0.065600
     98 H172       81.3977   59.5336   44.0728 dc         1 CLA      0.027600
     99 H171       82.8918   58.8957   44.0855 dc         1 CLA      0.027600
    100 H162       82.9158   59.4816   41.4331 dc         1 CLA      0.002900
    101 H161       81.2418   59.9427   41.6765 dc         1 CLA      0.002900
    102 H152       80.6587   57.6328   42.5431 dc         1 CLA      0.029100
    103 H151       82.3529   57.2354   42.4499 dc         1 CLA      0.029100
    104 H143       79.0593   58.1343   40.6212 dc         1 CLA      0.063600
    105 H142       80.2485   59.1107   39.7214 dc         1 CLA      0.063600
    106 H141       79.5066   57.5991   39.0248 dc         1 CLA      0.063600
    107 H122       83.1754   56.7139   40.0228 dc         1 CLA      0.032500
    108 H121       82.6603   58.2768   39.4383 dc         1 CLA      0.032500
    109 H112       81.3170   57.2968   37.7013 dc         1 CLA      0.006600
    110 H111       81.7855   55.6585   38.4812 dc         1 CLA      0.006600
    111 H102       84.0887   56.1369   37.7659 dc         1 CLA      0.024100
    112 H101       83.7860   57.9047   37.4310 dc         1 CLA      0.024100
    113 HHD        70.4165   56.7848   38.8057 da         1 CLA      0.174300
    114 HHC        74.6236   60.4717   42.1446 da         1 CLA      0.136800
    115 HHB        78.5459   60.5768   37.1321 da         1 CLA      0.138300
    116 HBD        74.0124   56.7830   32.8358 dc         1 CLA      0.107700
    117 HAB        76.4779   62.2590   42.5565 da         1 CLA      0.155200
    118 H93        84.9185   56.2924   34.1230 dc         1 CLA      0.069500
    119 H92        84.9797   57.8109   35.0367 dc         1 CLA      0.069500
    120 H91        85.5427   56.3379   35.8349 dc         1 CLA      0.069500
    121 H8         82.6383   57.0336   35.2362 dc         1 CLA      0.029300
    122 H72        81.7743   54.9277   35.8625 dc         1 CLA      0.044400
    123 H71        83.5096   54.2767   36.0653 dc         1 CLA      0.044400
    124 H62        83.7251   54.5448   33.5985 dc         1 CLA      0.015600
    125 H61        82.1994   55.4223   33.5639 dc         1 CLA      0.015600
    126 H52        82.6218   52.4780   34.2763 dc         1 CLA      0.033200
    127 H51        82.0972   53.1608   32.6599 dc         1 CLA      0.033200
    128 H43        79.1332   52.1321   34.8526 dc         1 CLA      0.037000
    129 H42        80.0217   51.2097   33.5370 dc         1 CLA      0.037000
    130 H41        80.7414   51.5134   35.2693 dc         1 CLA      0.037000
    131 H3A        78.0668   59.7180   34.2612 dc         1 CLA      0.041100
    132 H2A        77.3408   56.8967   34.3423 dc         1 CLA      0.083100
    133 H2         79.5470   54.9656   34.4519 da         1 CLA      0.180900
    134 H18        83.2845   61.1222   44.8421 dc         1 CLA     -0.003900
    135 H13        80.6868   56.3448   40.7309 dc         1 CLA      0.019700
    136 H12        77.9904   54.1254   32.0581 dc         1 CLA      0.120400
    137 H11        79.5137   54.3529   31.4156 dc         1 CLA      0.120400
    138 C1         67.5242   61.5093   49.0437 Z1         2 LUT      0.509236
    139 C2         67.3007   62.7123   49.9010 Z2         2 LUT     -0.434695
    140 C3         65.8774   63.3027   50.0404 Z3         2 LUT      0.437453
    141 O3         66.0850   64.7062   50.2674 S1         2 LUT     -0.547129
    142 C4         65.0686   62.9950   48.7533 Z4         2 LUT     -0.468603
    143 C5         65.9089   62.6138   47.5035 Z5         2 LUT      0.279246
    144 C6         66.9267   61.7176   47.6549 Z6         2 LUT     -0.305473
    145 C7         67.9010   61.4916   46.5149 Z7         2 LUT      0.069402
    146 C8         68.7091   62.2591   45.7099 Z8         2 LUT     -0.191631
    147 C9         69.2345   61.9122   44.3835 Z9         2 LUT      0.196698
    148 C10        70.2481   62.6368   43.8683 Y1         2 LUT     -0.208611
    149 C11        70.9470   62.6430   42.5659 Y2         2 LUT      0.030784
    150 C12        72.0078   63.4764   42.2839 Y3         2 LUT     -0.220316
    151 C13        72.8685   63.3915   41.0595 Y4         2 LUT      0.215937
    152 C14        74.0898   64.0908   40.9787 Y5         2 LUT     -0.185793
    153 C15        75.1381   64.2813   40.0455 Y6         2 LUT     -0.057835
    154 C16        66.7460   60.4420   49.8942 Y7         2 LUT     -0.405615
    155 C17        69.0515   61.2481   49.1916 Y7         2 LUT     -0.405615
    156 C18        65.5408   63.3796   46.2491 Y9         2 LUT     -0.369639
    157 C19        68.8534   60.6669   43.6682 W1         2 LUT     -0.333362
    158 C20        72.3364   62.6493   39.8592 W2         2 LUT     -0.323439
    159 C21        85.9334   64.8493   33.4586 Z1         2 LUT      0.406104
    160 C22        86.7854   64.3072   32.2264 Z2         2 LUT     -0.404965
    161 C23        87.1267   65.4259   31.2683 Z3         2 LUT      0.391255
    162 O23        87.9340   64.8211   30.2458 S1         2 LUT     -0.528210
    163 C24        85.9660   66.3586   30.9237 W6         2 LUT     -0.258361
    164 C25        84.8360   66.4137   31.5845 Z5         2 LUT      0.133546
    165 C26        84.6621   65.7199   32.8858 W8         2 LUT     -0.147008
    166 C27        83.9891   66.5842   33.9750 Z7         2 LUT      0.023843
    167 C28        82.8361   66.3018   34.6367 Z8         2 LUT     -0.216987
    168 C29        82.3959   66.5852   35.9802 Z9         2 LUT      0.206524
    169 C30        81.2308   66.0623   36.4158 Y1         2 LUT     -0.215556
    170 C31        80.5586   66.0997   37.7409 Y2         2 LUT      0.025142
    171 C32        79.3871   65.5164   38.0086 Y3         2 LUT     -0.212209
    172 C33        78.6219   65.6089   39.2145 Y4         2 LUT      0.240937
    173 C34        77.3315   65.0218   39.2130 Y5         2 LUT     -0.218862
    174 C35        76.3100   64.9244   40.2693 Y6         2 LUT     -0.023547
    175 C36        86.8579   65.6707   34.3954 Y7         2 LUT     -0.393485
    176 C37        85.5414   63.5668   34.2729 Y7         2 LUT     -0.393485
    177 C38        83.6421   67.2557   31.0511 Y9         2 LUT     -0.387526
    178 C39        83.2018   67.5637   36.7768 W1         2 LUT     -0.322618
    179 C40        79.2744   66.2713   40.4210 W2         2 LUT     -0.358472
    180 H403       79.3031   67.3286   40.2265 R7         2 LUT      0.097720
    181 H402       78.6839   66.0616   41.2375 R7         2 LUT      0.097720
    182 H401       80.2029   65.8654   40.7703 R7         2 LUT      0.097720
    183 H393       83.9802   66.9889   37.3541 R4         2 LUT      0.082505
    184 H392       83.7285   68.2702   36.1293 R4         2 LUT      0.082505
    185 H391       82.5871   68.0740   37.5346 R4         2 LUT      0.082505
    186 H383       82.7684   66.7062   30.7845 R1         2 LUT      0.104030
    187 H382       83.2914   68.0942   31.7179 R1         2 LUT      0.104030
    188 H381       83.9682   67.7715   30.1547 R1         2 LUT      0.104030
    189 H373       84.9750   62.8892   33.6285 T4         2 LUT      0.089537
    190 H372       86.4369   62.9810   34.6295 T4         2 LUT      0.089537
    191 H371       85.0496   63.7990   35.1728 T4         2 LUT      0.089537
    192 H363       87.7912   65.1639   34.7162 T4         2 LUT      0.089537
    193 H362       87.1246   66.6647   33.9291 T4         2 LUT      0.089537
    194 H361       86.3738   65.9226   35.4104 T4         2 LUT      0.089537
    195 H222       87.6039   63.8271   32.5306 U2         2 LUT      0.127376
    196 H221       86.1680   63.6632   31.6533 U2         2 LUT      0.127376
    197 H203       72.0859   61.6327   40.1054 R7         2 LUT      0.087068
    198 H202       71.5642   62.9806   39.2203 R7         2 LUT      0.087068
    199 H201       73.2160   62.5300   39.1865 R7         2 LUT      0.087068
    200 H193       69.1662   60.6005   42.6665 R4         2 LUT      0.089716
    201 H192       69.1924   59.7725   44.1067 R4         2 LUT      0.089716
    202 H191       67.7193   60.6807   43.6841 R4         2 LUT      0.089716
    203 H183       64.5667   63.8889   46.3921 R1         2 LUT      0.094572
    204 H182       66.2460   64.2335   46.2429 R1         2 LUT      0.094572
    205 H181       65.6899   62.7676   45.3415 R1         2 LUT      0.094572
    206 H173       69.5986   61.8640   48.4405 T4         2 LUT      0.093752
    207 H172       69.5265   61.4046   50.1788 T4         2 LUT      0.093752
    208 H171       69.1770   60.2115   48.9621 T4         2 LUT      0.093752
    209 H163       67.2568   60.0844   50.8283 T4         2 LUT      0.093752
    210 H162       65.7159   60.6746   50.1275 T4         2 LUT      0.093752
    211 H161       66.6570   59.5568   49.2889 T4         2 LUT      0.093752
    212 HO3        65.2731   65.2780   50.3996 Q1         2 LUT      0.300121
    213 H8         68.8328   63.2724   45.8611 U7         2 LUT      0.080784
    214 H7         67.6758   60.5111   46.1988 U6         2 LUT      0.042190
    215 H42        64.3418   62.2511   49.0339 U5         2 LUT      0.145166
    216 H41        64.4623   63.9002   48.5535 U5         2 LUT      0.145166
    217 H35        76.4634   65.2988   41.2745 T3         2 LUT      0.077919
    218 H34        77.1004   64.5311   38.2847 T2         2 LUT      0.073626
    219 H32        78.8215   65.1779   37.1575 T1         2 LUT      0.092510
    220 H31        81.0908   66.5443   38.5828 U9         2 LUT      0.070048
    221 H30        80.6393   65.4482   35.7743 U8         2 LUT      0.085442
    222 H3         65.3081   62.8827   50.8652 U3         2 LUT     -0.031596
    223 H28        82.2019   65.5875   34.0921 U7         2 LUT      0.084728
    224 H27        84.8029   67.0837   34.4862 U6         2 LUT      0.087291
    225 H26        83.9292   64.9000   32.6633 Q6         2 LUT      0.075325
    226 H24        86.0532   66.8458   29.9097 Q5         2 LUT      0.094482
    227 H23        87.8637   65.9486   31.8312 U3         2 LUT     -0.024869
    228 H22        67.5288   62.4916   50.9371 U2         2 LUT      0.127376
    229 H21        68.0234   63.4781   49.5903 U2         2 LUT      0.127376
    230 H15        75.0105   63.9498   39.0216 T3         2 LUT      0.093200
    231 H14        74.1915   64.5959   41.8728 T2         2 LUT      0.068865
    232 H12        72.3631   64.1367   43.0741 T1         2 LUT      0.095507
    233 H11        70.6774   61.9345   41.8167 U9         2 LUT      0.068930
    234 H10        70.4328   63.6093   44.3651 U8         2 LUT      0.083911
    235 H1         87.4221   64.7142   29.4931 Q1         2 LUT      0.297311
@<TRIPOS>BOND
    1     6     1 1
    2     7     2 1
    3     8     3 1
    4     9     4 1
    5    11     4 1
    6    12     6 1
    7    13     9 1
    8    16     9 1
    9    25     5 1
   10    25    16 1
   11    26    10 1
   12    26    17 1
   13    27    18 1
   14    28    14 1
   15    28    19 1
   16    29    12 1
   17    30    13 1
   18    31    24 1
   19    32     1 1
   20    32    25 1
   21    33    21 1
   22    33    26 1
   23    34    22 1
   24    34    27 1
   25    35    23 1
   26    35    28 1
   27    36    12 1
   28    36    24 1
   29    37    13 1
   30    37    15 1
   31    38    31 1
   32    39    20 1
   33    39    32 1
   34    40     2 1
   35    40    33 1
   36    41     3 1
   37    41    34 1
   38    42     4 1
   39    42    35 1
   40    43    38 1
   41    44     5 1
   42    44    17 1
   43    44    39 1
   44    45    10 1
   45    45    18 1
   46    45    40 1
   47    46    19 1
   48    46    41 1
   49    47    14 1
   50    47    16 1
   51    47    42 1
   52    48    38 1
   53    49    48 1
   54    50    49 1
   55    51    50 1
   56    52    51 1
   57    53    51 1
   58    54    53 1
   59    55    54 1
   60    56    55 1
   61    57    56 1
   62    58    56 1
   63    59    58 1
   64    60    59 1
   65    61    60 1
   66    62    61 1
   67    63    61 1
   68    64    27 1
   69    64    46 1
   70    65     5 1
   71    65    10 1
   72    65    64 1
   73    65    14 1
   74    66    23 1
   75    67    23 1
   76    68    23 1
   77    69    22 1
   78    70    22 1
   79    71    22 1
   80    72    21 1
   81    73    21 1
   82    74    21 1
   83    75    20 1
   84    76    20 1
   85    77    20 1
   86    78    15 1
   87    79    15 1
   88    80    15 1
   89    81     8 1
   90    82     8 1
   91    83     8 1
   92    84     7 1
   93    85     7 1
   94    86     6 1
   95    87     6 1
   96    88     3 1
   97    89     3 1
   98    90     1 1
   99    91     1 1
  100    92    63 1
  101    93    63 1
  102    94    63 1
  103    95    62 1
  104    96    62 1
  105    97    62 1
  106    98    60 1
  107    99    60 1
  108   100    59 1
  109   101    59 1
  110   102    58 1
  111   103    58 1
  112   104    57 1
  113   105    57 1
  114   106    57 1
  115   107    55 1
  116   108    55 1
  117   109    54 1
  118   110    54 1
  119   111    53 1
  120   112    53 1
  121   113    19 1
  122   114    18 1
  123   115    17 1
  124   116     9 1
  125   117     2 1
  126   118    52 1
  127   119    52 1
  128   120    52 1
  129   121    51 1
  130   122    50 1
  131   123    50 1
  132   124    49 1
  133   125    49 1
  134   126    48 1
  135   127    48 1
  136   128    43 1
  137   129    43 1
  138   130    43 1
  139   131    39 1
  140   132    32 1
  141   133    31 1
  142   134    61 1
  143   135    56 1
  144   136    24 1
  145   137    24 1
  146   139   138 1
  147   140   139 1
  148   141   140 1
  149   142   140 1
  150   143   142 1
  151   144   138 1
  152   144   143 1
  153   145   144 1
  154   146   145 1
  155   147   146 1
  156   148   147 1
  157   149   148 1
  158   150   149 1
  159   151   150 1
  160   152   151 1
  161   153   152 1
  162   154   138 1
  163   155   138 1
  164   156   143 1
  165   157   147 1
  166   158   151 1
  167   160   159 1
  168   161   160 1
  169   162   161 1
  170   163   161 1
  171   164   163 1
  172   165   159 1
  173   165   164 1
  174   166   165 1
  175   167   166 1
  176   168   167 1
  177   169   168 1
  178   170   169 1
  179   171   170 1
  180   172   171 1
  181   173   172 1
  182   174   153 1
  183   174   173 1
  184   175   159 1
  185   176   159 1
  186   177   164 1
  187   178   168 1
  188   179   172 1
  189   180   179 1
  190   181   179 1
  191   182   179 1
  192   183   178 1
  193   184   178 1
  194   185   178 1
  195   186   177 1
  196   187   177 1
  197   188   177 1
  198   189   176 1
  199   190   176 1
  200   191   176 1
  201   192   175 1
  202   193   175 1
  203   194   175 1
  204   195   160 1
  205   196   160 1
  206   197   158 1
  207   198   158 1
  208   199   158 1
  209   200   157 1
  210   201   157 1
  211   202   157 1
  212   203   156 1
  213   204   156 1
  214   205   156 1
  215   206   155 1
  216   207   155 1
  217   208   155 1
  218   209   154 1
  219   210   154 1
  220   211   154 1
  221   212   141 1
  222   213   146 1
  223   214   145 1
  224   215   142 1
  225   216   142 1
  226   217   174 1
  227   218   173 1
  228   219   171 1
  229   220   170 1
  230   221   169 1
  231   222   140 1
  232   223   167 1
  233   224   166 1
  234   225   165 1
  235   226   163 1
  236   227   161 1
  237   228   139 1
  238   229   139 1
  239   230   153 1
  240   231   152 1
  241   232   150 1
  242   233   149 1
  243   234   148 1
  244   235   162 1
  245   65    153 1
  246   65    174 1
@<TRIPOS>SUBSTRUCTURE
      1 CLA               1 ****               0 ****  **** 
      2 LUT             138 ****               0 ****  **** 
