@<TRIPOS>MOLECULE
Cpptraj generated mol2 file.
  235   246     2     0     0
SMALL
USER_CHARGES


@<TRIPOS>ATOM
      1 CAA        79.7446   59.4680   34.1426 a2         1 CLA     -0.055900
      2 CAB        79.1807   62.3766   42.9633 c8         1 CLA     -0.148500
      3 CAC        72.3746   58.0758   41.9904 a2         1 CLA     -0.012600
      4 CAD        75.6121   56.4578   34.6065 ck         1 CLA      0.398800
      5 NA         78.7189   58.9030   37.3961 ns         1 CLA     -0.225500
      6 CBA        80.8195   59.4919   33.0247 a2         1 CLA     -0.135000
      7 CBB        80.1167   63.1468   43.5431 c0         1 CLA     -0.395200
      8 CBC        72.3901   56.5829   42.3857 a3         1 CLA     -0.037700
      9 CBD        77.1337   57.0898   34.4210 a1         1 CLA     -0.053900
     10 NB         78.4595   60.2272   40.0528 nm         1 CLA     -0.295700
     11 OBD        75.0199   55.7720   33.7721 o2         1 CLA     -0.494600
     12 CGA        81.1710   58.1587   32.4519 c4         1 CLA      0.827000
     13 CGD        78.1225   56.0308   34.0010 c4         1 CLA      0.655300
     14 ND         75.9594   57.9646   37.7378 nm         1 CLA     -0.291600
     15 CED        79.1837   53.9598   34.7251 a3         1 CLA      0.005400
     16 CHA        77.3713   57.7160   35.7527 cs         1 CLA     -0.123800
     17 CHB        80.5188   60.0481   38.6881 aa         1 CLA     -0.291900
     18 CHC        76.8995   60.5542   41.9249 aa         1 CLA     -0.090400
     19 CHD        73.8997   57.8302   39.1080 aa         1 CLA     -0.052000
     20 CMA        81.9033   57.7626   36.8360 a3         1 CLA     -0.230700
     21 CMB        81.6384   62.2196   40.6513 a3         1 CLA     -0.180800
     22 CMC        74.5922   59.7919   43.8408 a3         1 CLA     -0.134000
     23 CMD        72.6546   56.3087   36.6296 a3         1 CLA     -0.141100
     24 C1         82.6237   56.2681   32.8309 a2         1 CLA      0.023000
     25 C1A        78.5532   58.3637   36.1701 ac         1 CLA     -0.015100
     26 C1B        79.7720   60.6036   39.7836 cr         1 CLA      0.054700
     27 C1C        75.8236   59.6967   41.5645 cn         1 CLA     -0.005600
     28 C1D        74.5955   57.5209   37.8930 ap         1 CLA     -0.047300
     29 O1A        80.8355   57.6986   31.3768 o2         1 CLA     -0.610800
     30 O1D        78.8007   55.9081   32.9640 o2         1 CLA     -0.558200
     31 C2         83.7186   56.0255   33.8717 c8         1 CLA     -0.325100
     32 C2A        79.8629   58.4573   35.3681 a1         1 CLA      0.098600
     33 C2B        80.2979   61.5065   40.7787 cb         1 CLA      0.088500
     34 C2C        74.6915   59.3322   42.4632 cb         1 CLA      0.053700
     35 C2D        74.0887   56.7707   36.7486 cb         1 CLA      0.058900
     36 O2A        81.9139   57.4235   33.3394 o1         1 CLA     -0.437200
     37 O2D        78.1371   54.9999   34.9592 o1         1 CLA     -0.357600
     38 C3         84.1290   54.8437   34.4042 c5         1 CLA      0.031200
     39 C3A        80.9022   58.9302   36.4107 a1         1 CLA      0.166800
     40 C3B        79.2156   61.6792   41.7231 cb         1 CLA      0.035000
     41 C3C        73.7989   58.5890   41.6234 cb         1 CLA     -0.089900
     42 C3D        75.1822   56.8879   35.8887 cb         1 CLA     -0.035900
     43 C4         83.3028   54.1269   35.5090 a3         1 CLA     -0.053300
     44 C4A        80.0233   59.3839   37.5643 ac         1 CLA      0.001800
     45 C4B        78.0804   60.8115   41.2232 cn         1 CLA     -0.020900
     46 C4C        74.4326   58.4364   40.3072 cr         1 CLA     -0.044400
     47 C4D        76.2594   57.5502   36.5340 c6         1 CLA     -0.046000
     48 C5         85.4250   54.2608   33.8406 a2         1 CLA     -0.070400
     49 C6         86.7396   55.0092   34.2842 a2         1 CLA      0.043900
     50 C7         86.8082   55.0933   35.8256 a2         1 CLA     -0.150000
     51 C8         86.0509   56.2438   36.6465 a1         1 CLA      0.064200
     52 C9         86.6614   57.6116   36.2774 a3         1 CLA     -0.259300
     53 C10        86.2507   56.0547   38.0925 a2         1 CLA     -0.071900
     54 C11        85.2102   56.7287   38.9807 a2         1 CLA      0.014500
     55 C12        85.5951   56.6533   40.4742 a2         1 CLA     -0.112100
     56 C13        84.6450   57.5230   41.3770 a1         1 CLA      0.089200
     57 C14        84.7322   59.0641   41.2321 a3         1 CLA     -0.239100
     58 C15        84.7774   57.0321   42.8884 a2         1 CLA     -0.102200
     59 C16        83.4386   56.6818   43.5856 a2         1 CLA      0.023900
     60 C17        82.4270   57.9092   43.8062 a2         1 CLA     -0.105700
     61 C18        82.8426   59.0743   44.8167 a1         1 CLA      0.206800
     62 C19        81.6282   60.1453   44.6962 a3         1 CLA     -0.280100
     63 C20        83.2166   58.7038   46.2596 a3         1 CLA     -0.280100
     64 NC         75.6969   58.9956   40.4025 nx         1 CLA     -0.309200
     65 MG         77.1221   59.1341   38.7981 mg         1 CLA      0.895000
     66 HMD3       72.5925   55.4121   35.9960 dc         1 CLA      0.064300
     67 HMD2       72.3381   56.0823   37.5932 dc         1 CLA      0.064300
     68 HMD1       72.0784   57.1117   36.1891 dc         1 CLA      0.064300
     69 HMC3       74.2848   60.8498   43.9982 dc         1 CLA      0.052100
     70 HMC2       74.0258   59.0556   44.3610 dc         1 CLA      0.052100
     71 HMC1       75.6441   59.6882   44.2269 dc         1 CLA      0.052100
     72 HMB3       82.0291   62.1438   39.6208 dc         1 CLA      0.063600
     73 HMB2       81.3889   63.2790   40.8139 dc         1 CLA      0.063600
     74 HMB1       82.2012   61.8017   41.4417 dc         1 CLA      0.063600
     75 HMA3       81.3446   56.7915   37.0058 dc         1 CLA      0.058300
     76 HMA2       82.5847   57.6232   36.0222 dc         1 CLA      0.058300
     77 HMA1       82.4976   58.0802   37.6401 dc         1 CLA      0.058300
     78 HED3       79.7404   53.6548   35.5933 dc         1 CLA      0.079300
     79 HED2       78.5920   53.0876   34.4110 dc         1 CLA      0.079300
     80 HED1       79.7734   53.9442   33.7880 dc         1 CLA      0.079300
     81 HBC3       71.4044   56.1244   42.3334 dc         1 CLA      0.016300
     82 HBC2       73.0849   55.9959   41.8018 dc         1 CLA      0.016300
     83 HBC1       72.7001   56.6194   43.3882 dc         1 CLA      0.016300
     84 HBB2       79.8359   63.7209   44.4336 da         1 CLA      0.183000
     85 HBB1       81.0973   63.3563   43.0949 da         1 CLA      0.183000
     86 HBA2       80.4206   60.2350   32.2494 dc         1 CLA      0.029400
     87 HBA1       81.7045   59.9166   33.3890 dc         1 CLA      0.029400
     88 HAC2       72.0000   58.6788   42.8170 dc         1 CLA      0.029300
     89 HAC1       71.6448   58.1553   41.1670 dc         1 CLA      0.029300
     90 HAA2       78.8010   59.1780   33.7027 dc         1 CLA      0.028700
     91 HAA1       79.6845   60.4216   34.6667 dc         1 CLA      0.028700
     92 H203       83.3605   59.6321   46.8677 dc         1 CLA      0.065600
     93 H202       82.4341   58.0785   46.7329 dc         1 CLA      0.065600
     94 H201       84.0875   58.0968   46.2311 dc         1 CLA      0.065600
     95 H193       81.9174   61.0190   45.3825 dc         1 CLA      0.065600
     96 H192       81.4433   60.5647   43.6910 dc         1 CLA      0.065600
     97 H191       80.6119   59.6951   44.9482 dc         1 CLA      0.065600
     98 H172       82.2287   58.3659   42.8431 dc         1 CLA      0.027600
     99 H171       81.4830   57.5283   44.1673 dc         1 CLA      0.027600
    100 H162       82.8514   56.0195   42.9369 dc         1 CLA      0.002900
    101 H161       83.5964   56.1954   44.5035 dc         1 CLA      0.002900
    102 H152       85.3026   56.0974   42.9383 dc         1 CLA      0.029100
    103 H151       85.3116   57.8164   43.4821 dc         1 CLA      0.029100
    104 H143       83.9857   59.6004   41.8644 dc         1 CLA      0.063600
    105 H142       85.7000   59.3052   41.5776 dc         1 CLA      0.063600
    106 H141       84.6386   59.3681   40.2802 dc         1 CLA      0.063600
    107 H122       85.4068   55.6331   40.7785 dc         1 CLA      0.032500
    108 H121       86.5756   56.9383   40.6374 dc         1 CLA      0.032500
    109 H112       85.1970   57.7188   38.6621 dc         1 CLA      0.006600
    110 H111       84.2176   56.2845   38.7233 dc         1 CLA      0.006600
    111 H102       86.1760   55.0103   38.2984 dc         1 CLA      0.024100
    112 H101       87.2012   56.4878   38.5351 dc         1 CLA      0.024100
    113 HHD        72.8803   57.5374   39.2777 da         1 CLA      0.174300
    114 HHC        76.8084   61.1400   42.8075 da         1 CLA      0.136800
    115 HHB        81.6004   60.2077   38.5312 da         1 CLA      0.138300
    116 HBD        77.1239   57.6925   33.5962 dc         1 CLA      0.107700
    117 HAB        78.2871   62.2496   43.6026 da         1 CLA      0.155200
    118 H93        86.8528   57.7508   35.2351 dc         1 CLA      0.069500
    119 H92        86.0193   58.4190   36.7306 dc         1 CLA      0.069500
    120 H91        87.6630   57.6670   36.7376 dc         1 CLA      0.069500
    121 H8         85.0163   56.3828   36.5108 dc         1 CLA      0.029300
    122 H72        86.5809   54.1369   36.2264 dc         1 CLA      0.044400
    123 H71        87.8325   55.2712   35.9989 dc         1 CLA      0.044400
    124 H62        87.5352   54.2950   33.9392 dc         1 CLA      0.015600
    125 H61        86.9077   55.9822   33.7903 dc         1 CLA      0.015600
    126 H52        85.4420   53.1816   33.9568 dc         1 CLA      0.033200
    127 H51        85.4240   54.4571   32.7800 dc         1 CLA      0.033200
    128 H43        82.3111   54.5692   35.5830 dc         1 CLA      0.037000
    129 H42        83.1401   53.0828   35.2845 dc         1 CLA      0.037000
    130 H41        83.7766   53.9889   36.5051 dc         1 CLA      0.037000
    131 H3A        81.4466   59.8406   36.0947 dc         1 CLA      0.041100
    132 H2A        80.0859   57.4845   34.8948 dc         1 CLA      0.083100
    133 H2         84.0415   56.9169   34.3762 da         1 CLA      0.180900
    134 H18        83.7320   59.4700   44.4074 dc         1 CLA     -0.003900
    135 H13        83.6156   57.2729   41.0805 dc         1 CLA      0.019700
    136 H12        81.9145   55.4520   32.5753 dc         1 CLA      0.120400
    137 H11        83.0952   56.5010   31.8514 dc         1 CLA      0.120400
    138 C1         69.7983   61.8679   50.7093 Z1         2 LUT      0.509236
    139 C2         68.4801   61.5581   51.3737 Z2         2 LUT     -0.434695
    140 C3         67.5344   62.7164   51.6085 Z3         2 LUT      0.437453
    141 O3         67.7964   63.1991   52.9316 S1         2 LUT     -0.547129
    142 C4         67.6060   63.7959   50.6327 Z4         2 LUT     -0.468603
    143 C5         68.4944   63.5854   49.4990 Z5         2 LUT      0.279246
    144 C6         69.5490   62.7455   49.5275 Z6         2 LUT     -0.305473
    145 C7         70.0199   62.2507   48.1754 Z7         2 LUT      0.069402
    146 C8         70.8797   62.9549   47.3441 Z8         2 LUT     -0.191631
    147 C9         71.3781   62.5126   46.0636 Z9         2 LUT      0.196698
    148 C10        72.3318   63.3373   45.4147 Y1         2 LUT     -0.208611
    149 C11        72.9905   63.1019   44.1465 Y2         2 LUT      0.030784
    150 C12        74.1920   63.7427   43.7817 Y3         2 LUT     -0.220316
    151 C13        75.0667   63.6953   42.5855 Y4         2 LUT      0.215937
    152 C14        76.1555   64.4858   42.5812 Y5         2 LUT     -0.185793
    153 C15        77.1936   64.6191   41.5456 Y6         2 LUT     -0.057835
    154 C16        70.4087   60.4133   50.4939 Y7         2 LUT     -0.405615
    155 C17        70.5158   62.7053   51.7886 Y7         2 LUT     -0.405615
    156 C18        67.9942   64.1822   48.2481 Y9         2 LUT     -0.369639
    157 C19        70.8817   61.2098   45.4566 W1         2 LUT     -0.333362
    158 C20        74.3717   63.2446   41.2821 W2         2 LUT     -0.323439
    159 C21        88.2762   65.9221   35.0069 Z1         2 LUT      0.406104
    160 C22        89.0833   65.5368   33.6630 Z2         2 LUT     -0.404965
    161 C23        89.1122   66.7237   32.6798 Z3         2 LUT      0.391255
    162 O23        89.7772   66.2090   31.5354 S1         2 LUT     -0.528210
    163 C24        87.7578   67.4047   32.5003 W6         2 LUT     -0.258361
    164 C25        86.8108   67.3959   33.4058 Z5         2 LUT      0.133546
    165 C26        86.8198   66.4458   34.6440 W8         2 LUT     -0.147008
    166 C27        86.2225   67.1879   35.8295 Z7         2 LUT      0.023843
    167 C28        85.0634   66.8165   36.3619 Z8         2 LUT     -0.216987
    168 C29        84.4442   67.3240   37.5507 Z9         2 LUT      0.206524
    169 C30        83.3219   66.6441   38.0371 Y1         2 LUT     -0.215556
    170 C31        82.6052   66.8067   39.3011 Y2         2 LUT      0.025142
    171 C32        81.4955   66.0553   39.5562 Y3         2 LUT     -0.212209
    172 C33        80.5639   66.1567   40.7191 Y4         2 LUT      0.240937
    173 C34        79.4702   65.3801   40.7452 Y5         2 LUT     -0.218862
    174 C35        78.3582   65.3468   41.6706 Y6         2 LUT     -0.023547
    175 C36        89.3001   66.8780   35.6958 Y7         2 LUT     -0.393485
    176 C37        88.1969   64.6966   35.9411 Y7         2 LUT     -0.393485
    177 C38        85.5969   68.3152   33.1425 Y9         2 LUT     -0.387526
    178 C39        84.9588   68.3905   38.4581 W1         2 LUT     -0.322618
    179 C40        80.9047   67.3675   41.6333 W2         2 LUT     -0.358472
    180 H403       80.8390   68.2895   41.0893 R7         2 LUT      0.097720
    181 H402       80.2505   67.4115   42.4501 R7         2 LUT      0.097720
    182 H401       81.8944   67.4217   42.1169 R7         2 LUT      0.097720
    183 H393       85.9745   68.8004   38.2720 R4         2 LUT      0.082505
    184 H392       84.3676   69.2663   38.4851 R4         2 LUT      0.082505
    185 H391       84.8900   68.0600   39.5065 R4         2 LUT      0.082505
    186 H383       85.7318   69.2878   33.6735 R1         2 LUT      0.104030
    187 H382       85.3966   68.6816   32.1031 R1         2 LUT      0.104030
    188 H381       84.6630   67.9492   33.5459 R1         2 LUT      0.104030
    189 H373       87.7063   63.7924   35.5552 T4         2 LUT      0.089537
    190 H372       89.2129   64.3450   36.3102 T4         2 LUT      0.089537
    191 H371       87.6487   64.8664   36.8649 T4         2 LUT      0.089537
    192 H363       89.5393   67.6895   35.0359 T4         2 LUT      0.089537
    193 H362       88.8413   67.3341   36.5318 T4         2 LUT      0.089537
    194 H361       90.1976   66.3071   36.1026 T4         2 LUT      0.089537
    195 H222       90.0956   65.2370   33.8330 U2         2 LUT      0.127376
    196 H221       88.4405   64.8151   33.1319 U2         2 LUT      0.127376
    197 H203       74.8227   63.6149   40.3854 R7         2 LUT      0.087068
    198 H202       74.3172   62.1986   41.3799 R7         2 LUT      0.087068
    199 H201       73.3463   63.6293   41.2704 R7         2 LUT      0.087068
    200 H193       71.6423   60.4006   45.3371 R4         2 LUT      0.089716
    201 H192       70.1100   60.6199   46.0147 R4         2 LUT      0.089716
    202 H191       70.3399   61.4870   44.5313 R4         2 LUT      0.089716
    203 H183       68.7039   64.9421   47.8325 R1         2 LUT      0.094572
    204 H182       67.7706   63.3650   47.5150 R1         2 LUT      0.094572
    205 H181       67.0735   64.8262   48.3050 R1         2 LUT      0.094572
    206 H173       70.5963   62.1518   52.7324 T4         2 LUT      0.093752
    207 H172       71.5343   62.8342   51.4992 T4         2 LUT      0.093752
    208 H171       70.1147   63.7360   51.9523 T4         2 LUT      0.093752
    209 H163       69.8524   59.8766   49.6879 T4         2 LUT      0.093752
    210 H162       71.4104   60.6666   50.1151 T4         2 LUT      0.093752
    211 H161       70.4268   59.8171   51.4228 T4         2 LUT      0.093752
    212 HO3        67.2605   62.7240   53.6077 Q1         2 LUT      0.300121
    213 H8         71.2792   63.9662   47.6223 U7         2 LUT      0.080784
    214 H7         69.6936   61.2499   47.8618 U6         2 LUT      0.042190
    215 H42        66.5895   63.7338   50.2429 U5         2 LUT      0.145166
    216 H41        67.8797   64.7494   51.0762 U5         2 LUT      0.145166
    217 H35        78.4250   66.0102   42.5275 T3         2 LUT      0.077919
    218 H34        79.3017   64.6652   39.8664 T2         2 LUT      0.073626
    219 H32        81.2132   65.3686   38.8303 T1         2 LUT      0.092510
    220 H31        82.9299   67.5256   39.9888 U9         2 LUT      0.070048
    221 H30        83.0544   65.8064   37.3922 U8         2 LUT      0.085442
    222 H3         66.5306   62.2002   51.5896 U3         2 LUT     -0.031596
    223 H28        84.3841   66.0912   35.8501 U7         2 LUT      0.084728
    224 H27        86.8334   68.0652   36.1897 U6         2 LUT      0.087291
    225 H26        86.1376   65.5914   34.4298 Q6         2 LUT      0.075325
    226 H24        87.7551   68.1288   31.6962 Q5         2 LUT      0.094482
    227 H23        89.8424   67.4583   33.1100 U3         2 LUT     -0.024869
    228 H22        67.9155   60.8351   50.6894 U2         2 LUT      0.127376
    229 H21        68.6514   60.9979   52.3233 U2         2 LUT      0.127376
    230 H15        77.0762   63.9955   40.6708 T3         2 LUT      0.093200
    231 H14        76.3985   65.1357   43.4599 T2         2 LUT      0.068865
    232 H12        74.5354   64.4916   44.5369 T1         2 LUT      0.095507
    233 H11        72.6467   62.2990   43.5006 U9         2 LUT      0.068930
    234 H10        72.6864   64.2464   45.9682 U8         2 LUT      0.083911
    235 H1         89.0902   65.8861   30.9354 Q1         2 LUT      0.297311
@<TRIPOS>BOND
    1     6     1 1
    2     7     2 1
    3     8     3 1
    4     9     4 1
    5    11     4 1
    6    12     6 1
    7    13     9 1
    8    16     9 1
    9    25     5 1
   10    25    16 1
   11    26    10 1
   12    26    17 1
   13    27    18 1
   14    28    14 1
   15    28    19 1
   16    29    12 1
   17    30    13 1
   18    31    24 1
   19    32     1 1
   20    32    25 1
   21    33    21 1
   22    33    26 1
   23    34    22 1
   24    34    27 1
   25    35    23 1
   26    35    28 1
   27    36    12 1
   28    36    24 1
   29    37    13 1
   30    37    15 1
   31    38    31 1
   32    39    20 1
   33    39    32 1
   34    40     2 1
   35    40    33 1
   36    41     3 1
   37    41    34 1
   38    42     4 1
   39    42    35 1
   40    43    38 1
   41    44     5 1
   42    44    17 1
   43    44    39 1
   44    45    10 1
   45    45    18 1
   46    45    40 1
   47    46    19 1
   48    46    41 1
   49    47    14 1
   50    47    16 1
   51    47    42 1
   52    48    38 1
   53    49    48 1
   54    50    49 1
   55    51    50 1
   56    52    51 1
   57    53    51 1
   58    54    53 1
   59    55    54 1
   60    56    55 1
   61    57    56 1
   62    58    56 1
   63    59    58 1
   64    60    59 1
   65    61    60 1
   66    62    61 1
   67    63    61 1
   68    64    27 1
   69    64    46 1
   70    65     5 1
   71    65    10 1
   72    65    64 1
   73    65    14 1
   74    66    23 1
   75    67    23 1
   76    68    23 1
   77    69    22 1
   78    70    22 1
   79    71    22 1
   80    72    21 1
   81    73    21 1
   82    74    21 1
   83    75    20 1
   84    76    20 1
   85    77    20 1
   86    78    15 1
   87    79    15 1
   88    80    15 1
   89    81     8 1
   90    82     8 1
   91    83     8 1
   92    84     7 1
   93    85     7 1
   94    86     6 1
   95    87     6 1
   96    88     3 1
   97    89     3 1
   98    90     1 1
   99    91     1 1
  100    92    63 1
  101    93    63 1
  102    94    63 1
  103    95    62 1
  104    96    62 1
  105    97    62 1
  106    98    60 1
  107    99    60 1
  108   100    59 1
  109   101    59 1
  110   102    58 1
  111   103    58 1
  112   104    57 1
  113   105    57 1
  114   106    57 1
  115   107    55 1
  116   108    55 1
  117   109    54 1
  118   110    54 1
  119   111    53 1
  120   112    53 1
  121   113    19 1
  122   114    18 1
  123   115    17 1
  124   116     9 1
  125   117     2 1
  126   118    52 1
  127   119    52 1
  128   120    52 1
  129   121    51 1
  130   122    50 1
  131   123    50 1
  132   124    49 1
  133   125    49 1
  134   126    48 1
  135   127    48 1
  136   128    43 1
  137   129    43 1
  138   130    43 1
  139   131    39 1
  140   132    32 1
  141   133    31 1
  142   134    61 1
  143   135    56 1
  144   136    24 1
  145   137    24 1
  146   139   138 1
  147   140   139 1
  148   141   140 1
  149   142   140 1
  150   143   142 1
  151   144   138 1
  152   144   143 1
  153   145   144 1
  154   146   145 1
  155   147   146 1
  156   148   147 1
  157   149   148 1
  158   150   149 1
  159   151   150 1
  160   152   151 1
  161   153   152 1
  162   154   138 1
  163   155   138 1
  164   156   143 1
  165   157   147 1
  166   158   151 1
  167   160   159 1
  168   161   160 1
  169   162   161 1
  170   163   161 1
  171   164   163 1
  172   165   159 1
  173   165   164 1
  174   166   165 1
  175   167   166 1
  176   168   167 1
  177   169   168 1
  178   170   169 1
  179   171   170 1
  180   172   171 1
  181   173   172 1
  182   174   153 1
  183   174   173 1
  184   175   159 1
  185   176   159 1
  186   177   164 1
  187   178   168 1
  188   179   172 1
  189   180   179 1
  190   181   179 1
  191   182   179 1
  192   183   178 1
  193   184   178 1
  194   185   178 1
  195   186   177 1
  196   187   177 1
  197   188   177 1
  198   189   176 1
  199   190   176 1
  200   191   176 1
  201   192   175 1
  202   193   175 1
  203   194   175 1
  204   195   160 1
  205   196   160 1
  206   197   158 1
  207   198   158 1
  208   199   158 1
  209   200   157 1
  210   201   157 1
  211   202   157 1
  212   203   156 1
  213   204   156 1
  214   205   156 1
  215   206   155 1
  216   207   155 1
  217   208   155 1
  218   209   154 1
  219   210   154 1
  220   211   154 1
  221   212   141 1
  222   213   146 1
  223   214   145 1
  224   215   142 1
  225   216   142 1
  226   217   174 1
  227   218   173 1
  228   219   171 1
  229   220   170 1
  230   221   169 1
  231   222   140 1
  232   223   167 1
  233   224   166 1
  234   225   165 1
  235   226   163 1
  236   227   161 1
  237   228   139 1
  238   229   139 1
  239   230   153 1
  240   231   152 1
  241   232   150 1
  242   233   149 1
  243   234   148 1
  244   235   162 1
  245   65    153 1
  246   65    174 1
@<TRIPOS>SUBSTRUCTURE
      1 CLA               1 ****               0 ****  **** 
      2 LUT             138 ****               0 ****  **** 
