@<TRIPOS>MOLECULE
Cpptraj generated mol2 file.
  235   246     2     0     0
SMALL
USER_CHARGES


@<TRIPOS>ATOM
      1 CAA        77.2592   57.9290   33.7903 a2         1 CLA     -0.055900
      2 CAB        77.5053   61.6012   42.7519 c8         1 CLA     -0.148500
      3 CAC        70.4896   57.5707   42.5503 a2         1 CLA     -0.012600
      4 CAD        72.9156   55.5571   35.0689 ck         1 CLA      0.398800
      5 NA         76.2969   58.2327   37.2547 ns         1 CLA     -0.225500
      6 CBA        78.4612   57.5708   32.9200 a2         1 CLA     -0.135000
      7 CBB        78.7582   61.7351   43.2871 c0         1 CLA     -0.395200
      8 CBC        70.4688   56.0335   42.5211 a3         1 CLA     -0.037700
      9 CBD        74.4019   56.0164   34.7891 a1         1 CLA     -0.053900
     10 NB         76.3449   59.7072   39.8144 nm         1 CLA     -0.295700
     11 OBD        72.2793   54.8106   34.3544 o2         1 CLA     -0.494600
     12 CGA        78.7964   56.1390   32.5424 c4         1 CLA      0.827000
     13 CGD        75.3216   54.8334   34.5627 c4         1 CLA      0.655300
     14 ND         73.4546   57.4524   37.9600 nm         1 CLA     -0.291600
     15 CED        76.3710   52.8571   35.5172 a3         1 CLA      0.005400
     16 CHA        74.8199   56.9393   35.9120 cs         1 CLA     -0.123800
     17 CHB        78.1994   59.5944   38.1576 aa         1 CLA     -0.291900
     18 CHC        75.1060   59.8720   41.9889 aa         1 CLA     -0.090400
     19 CHD        71.6258   57.3387   39.5940 aa         1 CLA     -0.052000
     20 CMA        79.7503   57.5205   36.2479 a3         1 CLA     -0.230700
     21 CMB        79.5721   61.5662   40.1359 a3         1 CLA     -0.180800
     22 CMC        72.7415   59.4394   44.0620 a3         1 CLA     -0.134000
     23 CMD        70.1239   55.8235   37.3256 a3         1 CLA     -0.141100
     24 C1         79.5106   54.0071   33.3412 a2         1 CLA      0.023000
     25 C1A        76.0457   57.5870   36.1313 ac         1 CLA     -0.015100
     26 C1B        77.6083   60.0825   39.3638 cr         1 CLA      0.054700
     27 C1C        73.9288   59.1920   41.7174 cn         1 CLA     -0.005600
     28 C1D        72.1875   57.0822   38.3446 ap         1 CLA     -0.047300
     29 O1A        78.8147   55.6703   31.3958 o2         1 CLA     -0.610800
     30 O1D        75.8944   54.4914   33.5417 o2         1 CLA     -0.558200
     31 C2         80.1201   53.4584   34.5820 c8         1 CLA     -0.325100
     32 C2A        77.3908   57.4237   35.3118 a1         1 CLA      0.098600
     33 C2B        78.2022   60.9432   40.3298 cb         1 CLA      0.088500
     34 C2C        72.8051   58.9406   42.6383 cb         1 CLA      0.053700
     35 C2D        71.5331   56.3656   37.3098 cb         1 CLA      0.058900
     36 O2A        79.1736   55.4419   33.6166 o1         1 CLA     -0.437200
     37 O2D        75.4746   54.0095   35.7248 o1         1 CLA     -0.357600
     38 C3         80.8287   52.3017   34.6990 c5         1 CLA      0.031200
     39 C3A        78.4361   58.2856   36.0293 a1         1 CLA      0.166800
     40 C3B        77.3279   60.9235   41.4755 cb         1 CLA      0.035000
     41 C3C        71.7856   58.1872   41.9569 cb         1 CLA     -0.089900
     42 C3D        72.5295   56.2047   36.3553 cb         1 CLA     -0.035900
     43 C4         80.1418   51.0013   34.9477 a3         1 CLA     -0.053300
     44 C4A        77.6159   58.6926   37.2235 ac         1 CLA      0.001800
     45 C4B        76.1913   60.1539   41.1123 cn         1 CLA     -0.020900
     46 C4C        72.3116   58.0498   40.6070 cr         1 CLA     -0.044400
     47 C4D        73.6916   56.9119   36.7910 c6         1 CLA     -0.046000
     48 C5         82.3645   52.2418   34.7249 a2         1 CLA     -0.070400
     49 C6         83.0467   53.5832   34.8966 a2         1 CLA      0.043900
     50 C7         83.1724   53.9839   36.3263 a2         1 CLA     -0.150000
     51 C8         83.7392   55.4667   36.5397 a1         1 CLA      0.064200
     52 C9         85.1817   55.6723   36.0466 a3         1 CLA     -0.259300
     53 C10        83.7134   55.7840   38.0326 a2         1 CLA     -0.071900
     54 C11        82.3640   56.2241   38.5969 a2         1 CLA      0.014500
     55 C12        82.4653   56.3291   40.2165 a2         1 CLA     -0.112100
     56 C13        81.1561   56.7064   41.0072 a1         1 CLA      0.089200
     57 C14        80.6361   58.0271   40.4496 a3         1 CLA     -0.239100
     58 C15        81.1274   56.5686   42.5739 a2         1 CLA     -0.102200
     59 C16        81.4385   57.7654   43.4209 a2         1 CLA      0.023900
     60 C17        82.8740   58.2406   43.3092 a2         1 CLA     -0.105700
     61 C18        83.3115   59.2265   44.3431 a1         1 CLA      0.206800
     62 C19        82.4024   60.4936   44.3595 a3         1 CLA     -0.280100
     63 C20        83.3751   58.5954   45.6938 a3         1 CLA     -0.280100
     64 NC         73.6063   58.6395   40.5168 nx         1 CLA     -0.309200
     65 MG         74.8197   58.6603   38.7812 mg         1 CLA      0.895000
     66 HMD3       70.0169   55.3210   36.3860 dc         1 CLA      0.064300
     67 HMD2       69.9066   55.1239   38.0835 dc         1 CLA      0.064300
     68 HMD1       69.4294   56.6864   37.3328 dc         1 CLA      0.064300
     69 HMC3       73.7213   59.6723   44.5674 dc         1 CLA      0.052100
     70 HMC2       72.0598   60.3271   44.0534 dc         1 CLA      0.052100
     71 HMC1       72.3311   58.5667   44.5897 dc         1 CLA      0.052100
     72 HMB3       80.2421   60.9532   40.6364 dc         1 CLA      0.063600
     73 HMB2       79.8398   61.7607   39.1505 dc         1 CLA      0.063600
     74 HMB1       79.5072   62.5824   40.6338 dc         1 CLA      0.063600
     75 HMA3       79.6127   56.5142   36.7532 dc         1 CLA      0.058300
     76 HMA2       80.1017   57.3366   35.2373 dc         1 CLA      0.058300
     77 HMA1       80.4994   58.1187   36.8235 dc         1 CLA      0.058300
     78 HED3       77.4145   53.1971   35.5944 dc         1 CLA      0.079300
     79 HED2       76.1203   52.1833   36.2303 dc         1 CLA      0.079300
     80 HED1       76.2435   52.3861   34.5410 dc         1 CLA      0.079300
     81 HBC3       69.9946   55.5881   43.3784 dc         1 CLA      0.016300
     82 HBC2       69.9119   55.8344   41.5856 dc         1 CLA      0.016300
     83 HBC1       71.4593   55.6061   42.4910 dc         1 CLA      0.016300
     84 HBB2       78.9289   62.2638   44.2647 da         1 CLA      0.183000
     85 HBB1       79.6204   61.1990   42.8150 da         1 CLA      0.183000
     86 HBA2       78.3725   58.0488   31.9501 dc         1 CLA      0.029400
     87 HBA1       79.4271   57.8919   33.3427 dc         1 CLA      0.029400
     88 HAC2       70.3699   57.8790   43.5833 dc         1 CLA      0.029300
     89 HAC1       69.7292   57.9010   41.9385 dc         1 CLA      0.029300
     90 HAA2       76.5171   57.3532   33.2668 dc         1 CLA      0.028700
     91 HAA1       77.0117   58.9316   33.7156 dc         1 CLA      0.028700
     92 H203       83.7747   59.2751   46.4234 dc         1 CLA      0.065600
     93 H202       82.3820   58.4018   46.0705 dc         1 CLA      0.065600
     94 H201       84.0364   57.7487   45.8240 dc         1 CLA      0.065600
     95 H193       81.4379   60.3100   44.8050 dc         1 CLA      0.065600
     96 H192       82.9044   61.4051   44.8447 dc         1 CLA      0.065600
     97 H191       82.1115   60.8004   43.3554 dc         1 CLA      0.065600
     98 H172       83.4235   57.2516   43.4490 dc         1 CLA      0.027600
     99 H171       83.0415   58.5615   42.2542 dc         1 CLA      0.027600
    100 H162       80.7330   58.5631   43.2196 dc         1 CLA      0.002900
    101 H161       81.2493   57.4498   44.3942 dc         1 CLA      0.002900
    102 H152       80.2123   56.1065   42.8903 dc         1 CLA      0.029100
    103 H151       81.9337   55.8414   42.6730 dc         1 CLA      0.029100
    104 H143       80.4232   57.8409   39.3785 dc         1 CLA      0.063600
    105 H142       79.7116   58.2700   40.9855 dc         1 CLA      0.063600
    106 H141       81.3458   58.8801   40.5548 dc         1 CLA      0.063600
    107 H122       82.9026   55.4670   40.6559 dc         1 CLA      0.032500
    108 H121       83.2049   57.0939   40.4141 dc         1 CLA      0.032500
    109 H112       82.1564   57.2675   38.1642 dc         1 CLA      0.006600
    110 H111       81.5579   55.5956   38.2926 dc         1 CLA      0.006600
    111 H102       83.9999   54.9451   38.5714 dc         1 CLA      0.024100
    112 H101       84.3453   56.6229   38.2991 dc         1 CLA      0.024100
    113 HHD        70.6671   56.8578   39.7773 da         1 CLA      0.174300
    114 HHC        74.9709   60.4076   42.8992 da         1 CLA      0.136800
    115 HHB        79.2118   59.8550   38.0848 da         1 CLA      0.138300
    116 HBD        74.3993   56.5604   33.8733 dc         1 CLA      0.107700
    117 HAB        76.6447   61.9617   43.2739 da         1 CLA      0.155200
    118 H93        85.8372   54.9037   36.3336 dc         1 CLA      0.069500
    119 H92        85.0097   55.7134   34.9643 dc         1 CLA      0.069500
    120 H91        85.5895   56.6468   36.3174 dc         1 CLA      0.069500
    121 H8         83.0850   56.0818   35.9194 dc         1 CLA      0.029300
    122 H72        82.1388   53.9718   36.7573 dc         1 CLA      0.044400
    123 H71        83.7438   53.2269   36.9131 dc         1 CLA      0.044400
    124 H62        84.1050   53.6171   34.6021 dc         1 CLA      0.015600
    125 H61        82.5312   54.2796   34.2302 dc         1 CLA      0.015600
    126 H52        82.7017   51.4247   35.2932 dc         1 CLA      0.033200
    127 H51        82.7175   51.9722   33.6999 dc         1 CLA      0.033200
    128 H43        80.4480   50.6456   35.8984 dc         1 CLA      0.037000
    129 H42        79.0698   51.2593   34.9249 dc         1 CLA      0.037000
    130 H41        80.3813   50.2849   34.1847 dc         1 CLA      0.037000
    131 H3A        78.6884   59.2098   35.5095 dc         1 CLA      0.041100
    132 H2A        77.6876   56.4410   35.2797 dc         1 CLA      0.083100
    133 H2         79.8026   53.9537   35.5512 da         1 CLA      0.180900
    134 H18        84.3347   59.5003   44.1018 dc         1 CLA     -0.003900
    135 H13        80.2972   56.0756   40.7269 dc         1 CLA      0.019700
    136 H12        78.5823   53.5400   33.0493 dc         1 CLA      0.120400
    137 H11        80.3182   53.9063   32.5398 dc         1 CLA      0.120400
    138 C1         67.4897   60.9924   49.0678 Z1         2 LUT      0.509236
    139 C2         67.5013   62.1665   50.1144 Z2         2 LUT     -0.434695
    140 C3         66.1429   62.6304   50.4844 Z3         2 LUT      0.437453
    141 O3         66.3578   63.9540   50.9352 S1         2 LUT     -0.547129
    142 C4         65.1889   62.7060   49.2862 Z4         2 LUT     -0.468603
    143 C5         65.7573   62.4057   47.9211 Z5         2 LUT      0.279246
    144 C6         66.7160   61.4045   47.7954 Z6         2 LUT     -0.305473
    145 C7         67.4593   61.3480   46.5579 Z7         2 LUT      0.069402
    146 C8         68.3762   62.0109   45.8660 Z8         2 LUT     -0.191631
    147 C9         69.0172   61.7019   44.5867 Z9         2 LUT      0.196698
    148 C10        70.0807   62.4990   44.1813 Y1         2 LUT     -0.208611
    149 C11        70.9584   62.3143   43.0326 Y2         2 LUT      0.030784
    150 C12        72.0245   63.1093   42.6385 Y3         2 LUT     -0.220316
    151 C13        72.8777   62.8483   41.5038 Y4         2 LUT      0.215937
    152 C14        74.1189   63.4997   41.5623 Y5         2 LUT     -0.185793
    153 C15        75.1221   63.5320   40.6510 Y6         2 LUT     -0.057835
    154 C16        66.7527   59.8550   49.7412 Y7         2 LUT     -0.405615
    155 C17        68.9760   60.5974   48.9935 Y7         2 LUT     -0.405615
    156 C18        65.4365   63.5544   46.9845 Y9         2 LUT     -0.369639
    157 C19        68.3390   60.6103   43.7362 W1         2 LUT     -0.333362
    158 C20        72.4019   62.2211   40.2139 W2         2 LUT     -0.323439
    159 C21        86.1452   64.8916   34.3315 Z1         2 LUT      0.406104
    160 C22        87.0991   64.4153   33.1727 Z2         2 LUT     -0.404965
    161 C23        87.3327   65.4588   32.0344 Z3         2 LUT      0.391255
    162 O23        88.1304   64.9140   30.9301 S1         2 LUT     -0.528210
    163 C24        86.0387   66.1036   31.6477 W6         2 LUT     -0.258361
    164 C25        84.9539   66.2288   32.4136 Z5         2 LUT      0.133546
    165 C26        84.7329   65.4796   33.7396 W8         2 LUT     -0.147008
    166 C27        83.9111   66.3189   34.7361 Z7         2 LUT      0.023843
    167 C28        82.9600   65.6323   35.4167 Z8         2 LUT     -0.216987
    168 C29        82.1486   66.1616   36.5394 Z9         2 LUT      0.206524
    169 C30        81.1064   65.4461   37.0163 Y1         2 LUT     -0.215556
    170 C31        80.2140   65.6948   38.1159 Y2         2 LUT      0.025142
    171 C32        79.1854   64.8756   38.5597 Y3         2 LUT     -0.212209
    172 C33        78.2946   65.1413   39.6322 Y4         2 LUT      0.240937
    173 C34        77.3019   64.1993   39.8183 Y5         2 LUT     -0.218862
    174 C35        76.2629   64.2620   40.7633 Y6         2 LUT     -0.023547
    175 C36        86.9857   66.1942   34.9217 Y7         2 LUT     -0.393485
    176 C37        86.0310   63.9641   35.5101 Y7         2 LUT     -0.393485
    177 C38        83.7565   66.9052   31.8041 Y9         2 LUT     -0.387526
    178 C39        82.4290   67.5650   37.0082 W1         2 LUT     -0.322618
    179 C40        78.3604   66.3880   40.5537 W2         2 LUT     -0.358472
    180 H403       77.6946   67.1360   40.1766 R7         2 LUT      0.097720
    181 H402       77.9273   66.0845   41.5299 R7         2 LUT      0.097720
    182 H401       79.3840   66.8291   40.6653 R7         2 LUT      0.097720
    183 H393       81.7435   68.1486   36.3856 R4         2 LUT      0.082505
    184 H392       82.2449   67.8018   38.0679 R4         2 LUT      0.082505
    185 H391       83.4885   67.8132   36.9450 R4         2 LUT      0.082505
    186 H383       82.8376   66.3308   32.0573 R1         2 LUT      0.104030
    187 H382       83.5311   67.9370   32.1036 R1         2 LUT      0.104030
    188 H381       83.8424   66.9748   30.7188 R1         2 LUT      0.104030
    189 H373       85.4730   63.0982   35.1461 T4         2 LUT      0.089537
    190 H372       86.9707   63.5626   35.9245 T4         2 LUT      0.089537
    191 H371       85.4573   64.4601   36.2805 T4         2 LUT      0.089537
    192 H363       87.9907   65.8922   35.1698 T4         2 LUT      0.089537
    193 H362       86.8951   67.0293   34.2302 T4         2 LUT      0.089537
    194 H361       86.5188   66.5814   35.8087 T4         2 LUT      0.089537
    195 H222       88.0853   64.0853   33.4358 U2         2 LUT      0.127376
    196 H221       86.7156   63.4751   32.7702 U2         2 LUT      0.127376
    197 H203       72.6907   62.7438   39.3487 R7         2 LUT      0.087068
    198 H202       72.7618   61.1972   40.1259 R7         2 LUT      0.087068
    199 H201       71.2824   62.2049   40.2248 R7         2 LUT      0.087068
    200 H193       67.2558   60.7389   43.7356 R4         2 LUT      0.089716
    201 H192       68.6547   60.6280   42.6745 R4         2 LUT      0.089716
    202 H191       68.5189   59.6896   44.1800 R4         2 LUT      0.089716
    203 H183       65.8800   64.5101   47.2407 R1         2 LUT      0.094572
    204 H182       65.7379   63.4390   45.8974 R1         2 LUT      0.094572
    205 H181       64.3352   63.7497   46.9614 R1         2 LUT      0.094572
    206 H173       69.4601   61.4469   48.5369 T4         2 LUT      0.093752
    207 H172       69.4135   60.2324   49.9204 T4         2 LUT      0.093752
    208 H171       69.1308   59.6872   48.2909 T4         2 LUT      0.093752
    209 H163       67.0525   59.6765   50.7003 T4         2 LUT      0.093752
    210 H162       65.7405   60.0569   49.8057 T4         2 LUT      0.093752
    211 H161       66.9408   58.8804   49.2890 T4         2 LUT      0.093752
    212 HO3        65.6268   64.3817   51.4808 Q1         2 LUT      0.300121
    213 H8         68.6840   62.8643   46.3502 U7         2 LUT      0.080784
    214 H7         67.1855   60.3976   46.1052 U6         2 LUT      0.042190
    215 H42        64.3956   62.0003   49.4906 U5         2 LUT      0.145166
    216 H41        64.7246   63.7075   49.1910 U5         2 LUT      0.145166
    217 H35        76.2670   64.9048   41.7084 T3         2 LUT      0.077919
    218 H34        77.2742   63.3185   39.1487 T2         2 LUT      0.073626
    219 H32        79.0426   63.9278   38.0211 T1         2 LUT      0.092510
    220 H31        80.4866   66.4641   38.7506 U9         2 LUT      0.070048
    221 H30        81.0671   64.4889   36.6285 U8         2 LUT      0.085442
    222 H3         65.7298   62.0648   51.3061 U3         2 LUT     -0.031596
    223 H28        82.6909   64.6880   35.0331 U7         2 LUT      0.084728
    224 H27        84.1404   67.3459   34.9628 U6         2 LUT      0.087291
    225 H26        84.1298   64.7359   33.2353 Q6         2 LUT      0.075325
    226 H24        86.1767   66.6463   30.7287 Q5         2 LUT      0.094482
    227 H23        88.0106   66.2898   32.4266 U3         2 LUT     -0.024869
    228 H22        67.9168   61.7448   50.9661 U2         2 LUT      0.127376
    229 H21        68.2072   62.9036   49.6999 U2         2 LUT      0.127376
    230 H15        75.1418   62.7848   39.8653 T3         2 LUT      0.093200
    231 H14        74.3057   64.1350   42.4226 T2         2 LUT      0.068865
    232 H12        72.3214   64.0139   43.1876 T1         2 LUT      0.095507
    233 H11        70.8459   61.3550   42.5366 U9         2 LUT      0.068930
    234 H10        70.3197   63.3163   44.8289 U8         2 LUT      0.083911
    235 H1         87.6182   64.4036   30.2825 Q1         2 LUT      0.297311
@<TRIPOS>BOND
    1     6     1 1
    2     7     2 1
    3     8     3 1
    4     9     4 1
    5    11     4 1
    6    12     6 1
    7    13     9 1
    8    16     9 1
    9    25     5 1
   10    25    16 1
   11    26    10 1
   12    26    17 1
   13    27    18 1
   14    28    14 1
   15    28    19 1
   16    29    12 1
   17    30    13 1
   18    31    24 1
   19    32     1 1
   20    32    25 1
   21    33    21 1
   22    33    26 1
   23    34    22 1
   24    34    27 1
   25    35    23 1
   26    35    28 1
   27    36    12 1
   28    36    24 1
   29    37    13 1
   30    37    15 1
   31    38    31 1
   32    39    20 1
   33    39    32 1
   34    40     2 1
   35    40    33 1
   36    41     3 1
   37    41    34 1
   38    42     4 1
   39    42    35 1
   40    43    38 1
   41    44     5 1
   42    44    17 1
   43    44    39 1
   44    45    10 1
   45    45    18 1
   46    45    40 1
   47    46    19 1
   48    46    41 1
   49    47    14 1
   50    47    16 1
   51    47    42 1
   52    48    38 1
   53    49    48 1
   54    50    49 1
   55    51    50 1
   56    52    51 1
   57    53    51 1
   58    54    53 1
   59    55    54 1
   60    56    55 1
   61    57    56 1
   62    58    56 1
   63    59    58 1
   64    60    59 1
   65    61    60 1
   66    62    61 1
   67    63    61 1
   68    64    27 1
   69    64    46 1
   70    65     5 1
   71    65    10 1
   72    65    64 1
   73    65    14 1
   74    66    23 1
   75    67    23 1
   76    68    23 1
   77    69    22 1
   78    70    22 1
   79    71    22 1
   80    72    21 1
   81    73    21 1
   82    74    21 1
   83    75    20 1
   84    76    20 1
   85    77    20 1
   86    78    15 1
   87    79    15 1
   88    80    15 1
   89    81     8 1
   90    82     8 1
   91    83     8 1
   92    84     7 1
   93    85     7 1
   94    86     6 1
   95    87     6 1
   96    88     3 1
   97    89     3 1
   98    90     1 1
   99    91     1 1
  100    92    63 1
  101    93    63 1
  102    94    63 1
  103    95    62 1
  104    96    62 1
  105    97    62 1
  106    98    60 1
  107    99    60 1
  108   100    59 1
  109   101    59 1
  110   102    58 1
  111   103    58 1
  112   104    57 1
  113   105    57 1
  114   106    57 1
  115   107    55 1
  116   108    55 1
  117   109    54 1
  118   110    54 1
  119   111    53 1
  120   112    53 1
  121   113    19 1
  122   114    18 1
  123   115    17 1
  124   116     9 1
  125   117     2 1
  126   118    52 1
  127   119    52 1
  128   120    52 1
  129   121    51 1
  130   122    50 1
  131   123    50 1
  132   124    49 1
  133   125    49 1
  134   126    48 1
  135   127    48 1
  136   128    43 1
  137   129    43 1
  138   130    43 1
  139   131    39 1
  140   132    32 1
  141   133    31 1
  142   134    61 1
  143   135    56 1
  144   136    24 1
  145   137    24 1
  146   139   138 1
  147   140   139 1
  148   141   140 1
  149   142   140 1
  150   143   142 1
  151   144   138 1
  152   144   143 1
  153   145   144 1
  154   146   145 1
  155   147   146 1
  156   148   147 1
  157   149   148 1
  158   150   149 1
  159   151   150 1
  160   152   151 1
  161   153   152 1
  162   154   138 1
  163   155   138 1
  164   156   143 1
  165   157   147 1
  166   158   151 1
  167   160   159 1
  168   161   160 1
  169   162   161 1
  170   163   161 1
  171   164   163 1
  172   165   159 1
  173   165   164 1
  174   166   165 1
  175   167   166 1
  176   168   167 1
  177   169   168 1
  178   170   169 1
  179   171   170 1
  180   172   171 1
  181   173   172 1
  182   174   153 1
  183   174   173 1
  184   175   159 1
  185   176   159 1
  186   177   164 1
  187   178   168 1
  188   179   172 1
  189   180   179 1
  190   181   179 1
  191   182   179 1
  192   183   178 1
  193   184   178 1
  194   185   178 1
  195   186   177 1
  196   187   177 1
  197   188   177 1
  198   189   176 1
  199   190   176 1
  200   191   176 1
  201   192   175 1
  202   193   175 1
  203   194   175 1
  204   195   160 1
  205   196   160 1
  206   197   158 1
  207   198   158 1
  208   199   158 1
  209   200   157 1
  210   201   157 1
  211   202   157 1
  212   203   156 1
  213   204   156 1
  214   205   156 1
  215   206   155 1
  216   207   155 1
  217   208   155 1
  218   209   154 1
  219   210   154 1
  220   211   154 1
  221   212   141 1
  222   213   146 1
  223   214   145 1
  224   215   142 1
  225   216   142 1
  226   217   174 1
  227   218   173 1
  228   219   171 1
  229   220   170 1
  230   221   169 1
  231   222   140 1
  232   223   167 1
  233   224   166 1
  234   225   165 1
  235   226   163 1
  236   227   161 1
  237   228   139 1
  238   229   139 1
  239   230   153 1
  240   231   152 1
  241   232   150 1
  242   233   149 1
  243   234   148 1
  244   235   162 1
  245   65    153 1
  246   65    174 1
@<TRIPOS>SUBSTRUCTURE
      1 CLA               1 ****               0 ****  **** 
      2 LUT             138 ****               0 ****  **** 
