@<TRIPOS>MOLECULE
Cpptraj generated mol2 file.
  235   246     2     0     0
SMALL
USER_CHARGES


@<TRIPOS>ATOM
      1 CAA        77.7957   58.5017   34.3023 a2         1 CLA     -0.055900
      2 CAB        78.1720   62.2282   43.1232 c8         1 CLA     -0.148500
      3 CAC        71.1165   58.2677   43.0352 a2         1 CLA     -0.012600
      4 CAD        73.5850   55.8970   35.4528 ck         1 CLA      0.398800
      5 NA         76.8146   58.8045   37.6122 ns         1 CLA     -0.225500
      6 CBA        79.0385   58.1830   33.3492 a2         1 CLA     -0.135000
      7 CBB        79.2782   61.7925   43.7760 c0         1 CLA     -0.395200
      8 CBC        70.8350   56.7328   42.8597 a3         1 CLA     -0.037700
      9 CBD        74.9516   56.4664   35.0881 a1         1 CLA     -0.053900
     10 NB         76.8395   60.3558   40.1611 nm         1 CLA     -0.295700
     11 OBD        72.9624   55.0864   34.8060 o2         1 CLA     -0.494600
     12 CGA        79.2844   56.7954   32.8849 c4         1 CLA      0.827000
     13 CGD        75.9637   55.3355   34.7145 c4         1 CLA      0.655300
     14 ND         74.0757   57.8987   38.3355 nm         1 CLA     -0.291600
     15 CED        76.2625   52.9690   34.9507 a3         1 CLA      0.005400
     16 CHA        75.3651   57.3137   36.2651 cs         1 CLA     -0.123800
     17 CHB        78.6927   60.1086   38.5810 aa         1 CLA     -0.291900
     18 CHC        75.5155   60.6819   42.2617 aa         1 CLA     -0.090400
     19 CHD        72.2403   57.8577   39.9932 aa         1 CLA     -0.052000
     20 CMA        79.8989   57.5910   37.2767 a3         1 CLA     -0.230700
     21 CMB        80.0815   62.0815   40.4553 a3         1 CLA     -0.180800
     22 CMC        73.4909   59.9884   44.5094 a3         1 CLA     -0.134000
     23 CMD        70.9194   55.9432   37.7243 a3         1 CLA     -0.141100
     24 C1         79.7884   54.5822   33.7260 a2         1 CLA      0.023000
     25 C1A        76.5935   58.0270   36.5073 ac         1 CLA     -0.015100
     26 C1B        78.0903   60.6383   39.7409 cr         1 CLA      0.054700
     27 C1C        74.3989   59.8991   42.0746 cn         1 CLA     -0.005600
     28 C1D        72.8066   57.4910   38.7211 ap         1 CLA     -0.047300
     29 O1A        79.1863   56.3915   31.7537 o2         1 CLA     -0.610800
     30 O1D        76.6076   55.3620   33.6874 o2         1 CLA     -0.558200
     31 C2         80.2920   53.9216   34.9784 c8         1 CLA     -0.325100
     32 C2A        77.8845   57.8643   35.7004 a1         1 CLA      0.098600
     33 C2B        78.7743   61.5088   40.6751 cb         1 CLA      0.088500
     34 C2C        73.4226   59.4782   43.0767 cb         1 CLA      0.053700
     35 C2D        72.2803   56.6105   37.7148 cb         1 CLA      0.058900
     36 O2A        79.5347   55.9971   33.9852 o1         1 CLA     -0.437200
     37 O2D        75.9774   54.3000   35.6841 o1         1 CLA     -0.357600
     38 C3         81.1878   52.9227   35.0723 c5         1 CLA      0.031200
     39 C3A        78.9901   58.5365   36.5616 a1         1 CLA      0.166800
     40 C3B        77.8806   61.6898   41.7658 cb         1 CLA      0.035000
     41 C3C        72.4346   58.7412   42.4369 cb         1 CLA     -0.089900
     42 C3D        73.2113   56.5210   36.7116 cb         1 CLA     -0.035900
     43 C4         80.6904   51.5658   35.4244 a3         1 CLA     -0.053300
     44 C4A        78.1128   59.3166   37.5580 ac         1 CLA      0.001800
     45 C4B        76.6504   60.9312   41.4110 cn         1 CLA     -0.020900
     46 C4C        72.8922   58.5515   41.0449 cr         1 CLA     -0.044400
     47 C4D        74.2927   57.3053   37.1731 c6         1 CLA     -0.046000
     48 C5         82.7522   53.1388   34.8695 a2         1 CLA     -0.070400
     49 C6         83.3145   54.5408   35.2120 a2         1 CLA      0.043900
     50 C7         83.3244   54.8905   36.7326 a2         1 CLA     -0.150000
     51 C8         83.7484   56.3330   37.0062 a1         1 CLA      0.064200
     52 C9         84.8027   56.9520   36.0048 a3         1 CLA     -0.259300
     53 C10        84.0360   56.6169   38.5058 a2         1 CLA     -0.071900
     54 C11        82.8525   56.3813   39.4921 a2         1 CLA      0.014500
     55 C12        83.0362   56.9379   40.8781 a2         1 CLA     -0.112100
     56 C13        81.7989   56.8985   41.7225 a1         1 CLA      0.089200
     57 C14        80.6814   57.9510   41.3718 a3         1 CLA     -0.239100
     58 C15        82.1881   57.2424   43.2430 a2         1 CLA     -0.102200
     59 C16        82.9867   58.5069   43.4807 a2         1 CLA      0.023900
     60 C17        83.1084   58.9449   44.9692 a2         1 CLA     -0.105700
     61 C18        84.0476   60.2015   45.1672 a1         1 CLA      0.206800
     62 C19        85.5176   59.9542   44.7788 a3         1 CLA     -0.280100
     63 C20        83.4393   61.4990   44.5046 a3         1 CLA     -0.280100
     64 NC         74.0658   59.2741   40.8961 nx         1 CLA     -0.309200
     65 MG         75.4028   59.2557   39.1827 mg         1 CLA      0.895000
     66 HMD3       70.1045   56.4948   37.3727 dc         1 CLA      0.064300
     67 HMD2       70.9419   55.2795   36.8726 dc         1 CLA      0.064300
     68 HMD1       70.7989   55.5529   38.7633 dc         1 CLA      0.064300
     69 HMC3       74.3424   60.5822   44.6914 dc         1 CLA      0.052100
     70 HMC2       72.6021   60.6071   44.5759 dc         1 CLA      0.052100
     71 HMC1       73.3828   59.1334   45.1391 dc         1 CLA      0.052100
     72 HMB3       79.9539   63.0900   40.8673 dc         1 CLA      0.063600
     73 HMB2       80.8483   61.5585   40.9559 dc         1 CLA      0.063600
     74 HMB1       80.2890   62.2327   39.4202 dc         1 CLA      0.063600
     75 HMA3       80.7770   58.1672   37.5593 dc         1 CLA      0.058300
     76 HMA2       79.3121   57.3139   38.1603 dc         1 CLA      0.058300
     77 HMA1       80.0752   56.7136   36.7086 dc         1 CLA      0.058300
     78 HED3       77.3480   52.9822   34.7285 dc         1 CLA      0.079300
     79 HED2       76.2408   52.0378   35.5706 dc         1 CLA      0.079300
     80 HED1       75.6339   52.7545   34.1014 dc         1 CLA      0.079300
     81 HBC3       70.1660   56.5661   41.9879 dc         1 CLA      0.016300
     82 HBC2       71.7665   56.2407   42.6596 dc         1 CLA      0.016300
     83 HBC1       70.3279   56.3096   43.6598 dc         1 CLA      0.016300
     84 HBB2       79.6193   62.0848   44.8165 da         1 CLA      0.183000
     85 HBB1       80.0265   61.1739   43.2622 da         1 CLA      0.183000
     86 HBA2       79.0412   58.8223   32.5213 dc         1 CLA      0.029400
     87 HBA1       79.9891   58.4806   33.8232 dc         1 CLA      0.029400
     88 HAC2       71.0849   58.4518   44.1077 dc         1 CLA      0.029300
     89 HAC1       70.2500   58.6823   42.5434 dc         1 CLA      0.029300
     90 HAA2       76.9896   57.9796   33.9099 dc         1 CLA      0.028700
     91 HAA1       77.5558   59.5558   34.3833 dc         1 CLA      0.028700
     92 H203       83.3108   61.3341   43.4287 dc         1 CLA      0.065600
     93 H202       82.4636   61.6992   44.9809 dc         1 CLA      0.065600
     94 H201       84.0978   62.3241   44.5395 dc         1 CLA      0.065600
     95 H193       86.2349   60.6287   45.2030 dc         1 CLA      0.065600
     96 H192       85.8466   59.0335   45.2430 dc         1 CLA      0.065600
     97 H191       85.4940   60.0174   43.7100 dc         1 CLA      0.065600
     98 H172       82.1157   59.2748   45.2395 dc         1 CLA      0.027600
     99 H171       83.4248   58.0869   45.5634 dc         1 CLA      0.027600
    100 H162       83.9741   58.2747   43.0295 dc         1 CLA      0.002900
    101 H161       82.6615   59.4027   42.8288 dc         1 CLA      0.002900
    102 H152       81.2584   57.3551   43.7548 dc         1 CLA      0.029100
    103 H151       82.6753   56.3894   43.7146 dc         1 CLA      0.029100
    104 H143       80.9422   59.0020   41.3856 dc         1 CLA      0.063600
    105 H142       80.3064   57.7876   40.3735 dc         1 CLA      0.063600
    106 H141       79.8490   57.8485   41.9997 dc         1 CLA      0.063600
    107 H122       83.8147   56.5118   41.4120 dc         1 CLA      0.032500
    108 H121       83.3041   58.0025   40.8389 dc         1 CLA      0.032500
    109 H112       81.9383   56.7744   38.9451 dc         1 CLA      0.006600
    110 H111       82.7525   55.2810   39.6114 dc         1 CLA      0.006600
    111 H102       84.8980   55.9814   38.7528 dc         1 CLA      0.024100
    112 H101       84.3418   57.7061   38.5589 dc         1 CLA      0.024100
    113 HHD        71.4271   57.1855   40.1457 da         1 CLA      0.174300
    114 HHC        75.5278   61.1810   43.1828 da         1 CLA      0.136800
    115 HHB        79.7507   60.2947   38.6045 da         1 CLA      0.138300
    116 HBD        74.7432   57.0613   34.1730 dc         1 CLA      0.107700
    117 HAB        77.5119   62.8963   43.6619 da         1 CLA      0.155200
    118 H93        85.1358   57.8827   36.4122 dc         1 CLA      0.069500
    119 H92        85.6520   56.3279   35.8801 dc         1 CLA      0.069500
    120 H91        84.3749   57.0253   34.9868 dc         1 CLA      0.069500
    121 H8         82.8579   56.9064   36.7436 dc         1 CLA      0.029300
    122 H72        82.2563   54.6686   37.1538 dc         1 CLA      0.044400
    123 H71        84.0660   54.1870   37.2290 dc         1 CLA      0.044400
    124 H62        84.2001   54.6979   34.7257 dc         1 CLA      0.015600
    125 H61        82.6146   55.2390   34.7370 dc         1 CLA      0.015600
    126 H52        83.2085   52.3649   35.4995 dc         1 CLA      0.033200
    127 H51        82.9478   52.9102   33.7580 dc         1 CLA      0.033200
    128 H43        80.8824   50.9648   34.4825 dc         1 CLA      0.037000
    129 H42        81.1208   51.1550   36.3147 dc         1 CLA      0.037000
    130 H41        79.5947   51.5971   35.5409 dc         1 CLA      0.037000
    131 H3A        79.5834   59.2604   35.9788 dc         1 CLA      0.041100
    132 H2A        78.0509   56.7875   35.4855 dc         1 CLA      0.083100
    133 H2         80.0726   54.4928   35.8989 da         1 CLA      0.180900
    134 H18        84.0018   60.4135   46.2307 dc         1 CLA     -0.003900
    135 H13        81.3416   55.9451   41.8105 dc         1 CLA      0.019700
    136 H12        79.0101   54.0923   33.1830 dc         1 CLA      0.120400
    137 H11        80.6158   54.4010   33.0388 dc         1 CLA      0.120400
    138 C1         68.1495   61.7290   50.1686 Z1         2 LUT      0.509236
    139 C2         68.0097   62.9970   50.9946 Z2         2 LUT     -0.434695
    140 C3         66.6380   63.5496   51.2322 Z3         2 LUT      0.437453
    141 O3         66.9347   64.7643   51.9731 S1         2 LUT     -0.547129
    142 C4         65.7901   63.7403   49.9917 Z4         2 LUT     -0.468603
    143 C5         66.4989   63.0938   48.7539 Z5         2 LUT      0.279246
    144 C6         67.4507   62.0661   48.8375 Z6         2 LUT     -0.305473
    145 C7         68.2656   61.6654   47.6054 Z7         2 LUT      0.069402
    146 C8         68.9219   62.5464   46.7739 Z8         2 LUT     -0.191631
    147 C9         69.5993   62.1199   45.5458 Z9         2 LUT      0.196698
    148 C10        70.4386   62.9801   44.8068 Y1         2 LUT     -0.208611
    149 C11        71.1992   62.8399   43.6282 Y2         2 LUT      0.030784
    150 C12        72.3368   63.5211   43.3263 Y3         2 LUT     -0.220316
    151 C13        73.2658   63.3659   42.1834 Y4         2 LUT      0.215937
    152 C14        74.4279   64.1223   42.1447 Y5         2 LUT     -0.185793
    153 C15        75.5121   64.1901   41.2175 Y6         2 LUT     -0.057835
    154 C16        67.2260   60.6959   50.8168 Y7         2 LUT     -0.405615
    155 C17        69.5749   61.2544   50.2370 Y7         2 LUT     -0.405615
    156 C18        66.1174   63.8165   47.5528 Y9         2 LUT     -0.369639
    157 C19        69.1763   60.7763   44.9203 W1         2 LUT     -0.333362
    158 C20        72.6824   62.6104   41.0039 W2         2 LUT     -0.323439
    159 C21        86.8830   66.0612   34.6768 Z1         2 LUT      0.406104
    160 C22        87.5027   65.4791   33.3779 Z2         2 LUT     -0.404965
    161 C23        87.3944   66.4612   32.2448 Z3         2 LUT      0.391255
    162 O23        87.9978   65.8969   31.0193 S1         2 LUT     -0.528210
    163 C24        86.0448   67.0898   32.1569 W6         2 LUT     -0.258361
    164 C25        85.1028   67.1015   33.0710 Z5         2 LUT      0.133546
    165 C26        85.3726   66.4714   34.4132 W8         2 LUT     -0.147008
    166 C27        84.7049   67.0408   35.6818 Z7         2 LUT      0.023843
    167 C28        83.6289   66.5083   36.3235 Z8         2 LUT     -0.216987
    168 C29        82.9040   66.9668   37.4971 Z9         2 LUT      0.206524
    169 C30        81.7345   66.2730   37.8217 Y1         2 LUT     -0.215556
    170 C31        80.8886   66.4545   38.9369 Y2         2 LUT      0.025142
    171 C32        79.7428   65.7620   39.1396 Y3         2 LUT     -0.212209
    172 C33        78.7974   65.9812   40.2626 Y4         2 LUT      0.240937
    173 C34        77.6678   65.1596   40.3386 Y5         2 LUT     -0.218862
    174 C35        76.5533   65.0424   41.2800 Y6         2 LUT     -0.023547
    175 C36        87.7726   67.1992   35.1826 Y7         2 LUT     -0.393485
    176 C37        87.0101   64.8720   35.6298 Y7         2 LUT     -0.393485
    177 C38        83.7517   67.7933   32.8641 Y9         2 LUT     -0.387526
    178 C39        83.3826   68.0603   38.3954 W1         2 LUT     -0.322618
    179 C40        79.2261   66.8411   41.3848 W2         2 LUT     -0.358472
    180 H403       80.2417   66.6661   41.7258 R7         2 LUT      0.097720
    181 H402       79.0624   67.9020   41.0996 R7         2 LUT      0.097720
    182 H401       78.6435   66.7298   42.3287 R7         2 LUT      0.097720
    183 H393       82.5426   68.4544   38.9210 R4         2 LUT      0.082505
    184 H392       84.1338   67.6790   39.0498 R4         2 LUT      0.082505
    185 H391       83.8872   68.8773   37.9245 R4         2 LUT      0.082505
    186 H383       83.9201   68.5797   32.0795 R1         2 LUT      0.104030
    187 H382       82.9597   67.0799   32.5853 R1         2 LUT      0.104030
    188 H381       83.3751   68.2035   33.7944 R1         2 LUT      0.104030
    189 H373       86.3270   64.0587   35.3790 T4         2 LUT      0.089537
    190 H372       88.0784   64.4495   35.6191 T4         2 LUT      0.089537
    191 H371       86.7248   65.1427   36.6585 T4         2 LUT      0.089537
    192 H363       88.7074   66.8027   35.5759 T4         2 LUT      0.089537
    193 H362       87.8939   68.0433   34.4984 T4         2 LUT      0.089537
    194 H361       87.2442   67.6632   35.9909 T4         2 LUT      0.089537
    195 H222       88.4860   65.0312   33.4539 U2         2 LUT      0.127376
    196 H221       86.9204   64.6434   33.1902 U2         2 LUT      0.127376
    197 H203       72.1178   61.7226   41.2859 R7         2 LUT      0.087068
    198 H202       71.9132   63.1614   40.3793 R7         2 LUT      0.087068
    199 H201       73.5007   62.1888   40.4542 R7         2 LUT      0.087068
    200 H193       68.0579   60.5599   44.9848 R4         2 LUT      0.089716
    201 H192       69.2355   60.7278   43.8575 R4         2 LUT      0.089716
    202 H191       69.7662   60.0160   45.3717 R4         2 LUT      0.089716
    203 H183       65.0781   64.0526   47.5260 R1         2 LUT      0.094572
    204 H182       66.6569   64.7301   47.5017 R1         2 LUT      0.094572
    205 H181       66.2889   63.1642   46.7214 R1         2 LUT      0.094572
    206 H173       69.8188   61.1206   51.2720 T4         2 LUT      0.093752
    207 H172       69.5681   60.3277   49.7477 T4         2 LUT      0.093752
    208 H171       70.2875   61.9868   49.8083 T4         2 LUT      0.093752
    209 H163       66.1913   61.0006   50.8678 T4         2 LUT      0.093752
    210 H162       67.2266   59.7185   50.3287 T4         2 LUT      0.093752
    211 H161       67.3851   60.5604   51.8728 T4         2 LUT      0.093752
    212 HO3        66.1977   65.1070   52.4578 Q1         2 LUT      0.300121
    213 H8         68.9051   63.5673   46.9901 U7         2 LUT      0.080784
    214 H7         68.5285   60.5672   47.4922 U6         2 LUT      0.042190
    215 H42        64.7573   63.4646   50.2024 U5         2 LUT      0.145166
    216 H41        65.6814   64.8333   49.7623 U5         2 LUT      0.145166
    217 H35        76.5945   65.8113   42.0764 T3         2 LUT      0.077919
    218 H34        77.4765   64.4893   39.4903 T2         2 LUT      0.073626
    219 H32        79.4264   64.9402   38.5528 T1         2 LUT      0.092510
    220 H31        81.1205   67.2486   39.5828 U9         2 LUT      0.070048
    221 H30        81.4612   65.4264   37.1060 U8         2 LUT      0.085442
    222 H3         66.1460   62.8413   51.8495 U3         2 LUT     -0.031596
    223 H28        83.2805   65.5433   35.8949 U7         2 LUT      0.084728
    224 H27        85.1076   67.9893   36.0346 U6         2 LUT      0.087291
    225 H26        84.9024   65.5015   34.3962 Q6         2 LUT      0.075325
    226 H24        85.8417   67.7057   31.3180 Q5         2 LUT      0.094482
    227 H23        88.0412   67.3455   32.5195 U3         2 LUT     -0.024869
    228 H22        68.3677   62.7568   52.0138 U2         2 LUT      0.127376
    229 H21        68.6221   63.7132   50.4768 U2         2 LUT      0.127376
    230 H15        75.4904   63.5753   40.3089 T3         2 LUT      0.093200
    231 H14        74.5858   64.7170   42.9961 T2         2 LUT      0.068865
    232 H12        72.4977   64.3594   44.0041 T1         2 LUT      0.095507
    233 H11        70.9220   62.0210   42.9615 U9         2 LUT      0.068930
    234 H10        70.5803   63.9913   45.3022 U8         2 LUT      0.083911
    235 H1         87.3404   65.3143   30.5375 Q1         2 LUT      0.297311
@<TRIPOS>BOND
    1     6     1 1
    2     7     2 1
    3     8     3 1
    4     9     4 1
    5    11     4 1
    6    12     6 1
    7    13     9 1
    8    16     9 1
    9    25     5 1
   10    25    16 1
   11    26    10 1
   12    26    17 1
   13    27    18 1
   14    28    14 1
   15    28    19 1
   16    29    12 1
   17    30    13 1
   18    31    24 1
   19    32     1 1
   20    32    25 1
   21    33    21 1
   22    33    26 1
   23    34    22 1
   24    34    27 1
   25    35    23 1
   26    35    28 1
   27    36    12 1
   28    36    24 1
   29    37    13 1
   30    37    15 1
   31    38    31 1
   32    39    20 1
   33    39    32 1
   34    40     2 1
   35    40    33 1
   36    41     3 1
   37    41    34 1
   38    42     4 1
   39    42    35 1
   40    43    38 1
   41    44     5 1
   42    44    17 1
   43    44    39 1
   44    45    10 1
   45    45    18 1
   46    45    40 1
   47    46    19 1
   48    46    41 1
   49    47    14 1
   50    47    16 1
   51    47    42 1
   52    48    38 1
   53    49    48 1
   54    50    49 1
   55    51    50 1
   56    52    51 1
   57    53    51 1
   58    54    53 1
   59    55    54 1
   60    56    55 1
   61    57    56 1
   62    58    56 1
   63    59    58 1
   64    60    59 1
   65    61    60 1
   66    62    61 1
   67    63    61 1
   68    64    27 1
   69    64    46 1
   70    65     5 1
   71    65    10 1
   72    65    64 1
   73    65    14 1
   74    66    23 1
   75    67    23 1
   76    68    23 1
   77    69    22 1
   78    70    22 1
   79    71    22 1
   80    72    21 1
   81    73    21 1
   82    74    21 1
   83    75    20 1
   84    76    20 1
   85    77    20 1
   86    78    15 1
   87    79    15 1
   88    80    15 1
   89    81     8 1
   90    82     8 1
   91    83     8 1
   92    84     7 1
   93    85     7 1
   94    86     6 1
   95    87     6 1
   96    88     3 1
   97    89     3 1
   98    90     1 1
   99    91     1 1
  100    92    63 1
  101    93    63 1
  102    94    63 1
  103    95    62 1
  104    96    62 1
  105    97    62 1
  106    98    60 1
  107    99    60 1
  108   100    59 1
  109   101    59 1
  110   102    58 1
  111   103    58 1
  112   104    57 1
  113   105    57 1
  114   106    57 1
  115   107    55 1
  116   108    55 1
  117   109    54 1
  118   110    54 1
  119   111    53 1
  120   112    53 1
  121   113    19 1
  122   114    18 1
  123   115    17 1
  124   116     9 1
  125   117     2 1
  126   118    52 1
  127   119    52 1
  128   120    52 1
  129   121    51 1
  130   122    50 1
  131   123    50 1
  132   124    49 1
  133   125    49 1
  134   126    48 1
  135   127    48 1
  136   128    43 1
  137   129    43 1
  138   130    43 1
  139   131    39 1
  140   132    32 1
  141   133    31 1
  142   134    61 1
  143   135    56 1
  144   136    24 1
  145   137    24 1
  146   139   138 1
  147   140   139 1
  148   141   140 1
  149   142   140 1
  150   143   142 1
  151   144   138 1
  152   144   143 1
  153   145   144 1
  154   146   145 1
  155   147   146 1
  156   148   147 1
  157   149   148 1
  158   150   149 1
  159   151   150 1
  160   152   151 1
  161   153   152 1
  162   154   138 1
  163   155   138 1
  164   156   143 1
  165   157   147 1
  166   158   151 1
  167   160   159 1
  168   161   160 1
  169   162   161 1
  170   163   161 1
  171   164   163 1
  172   165   159 1
  173   165   164 1
  174   166   165 1
  175   167   166 1
  176   168   167 1
  177   169   168 1
  178   170   169 1
  179   171   170 1
  180   172   171 1
  181   173   172 1
  182   174   153 1
  183   174   173 1
  184   175   159 1
  185   176   159 1
  186   177   164 1
  187   178   168 1
  188   179   172 1
  189   180   179 1
  190   181   179 1
  191   182   179 1
  192   183   178 1
  193   184   178 1
  194   185   178 1
  195   186   177 1
  196   187   177 1
  197   188   177 1
  198   189   176 1
  199   190   176 1
  200   191   176 1
  201   192   175 1
  202   193   175 1
  203   194   175 1
  204   195   160 1
  205   196   160 1
  206   197   158 1
  207   198   158 1
  208   199   158 1
  209   200   157 1
  210   201   157 1
  211   202   157 1
  212   203   156 1
  213   204   156 1
  214   205   156 1
  215   206   155 1
  216   207   155 1
  217   208   155 1
  218   209   154 1
  219   210   154 1
  220   211   154 1
  221   212   141 1
  222   213   146 1
  223   214   145 1
  224   215   142 1
  225   216   142 1
  226   217   174 1
  227   218   173 1
  228   219   171 1
  229   220   170 1
  230   221   169 1
  231   222   140 1
  232   223   167 1
  233   224   166 1
  234   225   165 1
  235   226   163 1
  236   227   161 1
  237   228   139 1
  238   229   139 1
  239   230   153 1
  240   231   152 1
  241   232   150 1
  242   233   149 1
  243   234   148 1
  244   235   162 1
  245   65    153 1
  246   65    174 1
@<TRIPOS>SUBSTRUCTURE
      1 CLA               1 ****               0 ****  **** 
      2 LUT             138 ****               0 ****  **** 
