@<TRIPOS>MOLECULE
Cpptraj generated mol2 file.
  235   246     2     0     0
SMALL
USER_CHARGES


@<TRIPOS>ATOM
      1 CAA        79.0410   59.1470   33.0242 a2         1 CLA     -0.055900
      2 CAB        78.6756   62.3782   42.3845 c8         1 CLA     -0.148500
      3 CAC        72.1288   57.8276   41.4850 a2         1 CLA     -0.012600
      4 CAD        75.1763   56.1416   34.1248 ck         1 CLA      0.398800
      5 NA         78.0211   59.2898   36.4320 ns         1 CLA     -0.225500
      6 CBA        80.3111   59.2163   32.1946 a2         1 CLA     -0.135000
      7 CBB        79.7659   62.7724   43.0297 c0         1 CLA     -0.395200
      8 CBC        72.0463   56.2832   41.4335 a3         1 CLA     -0.037700
      9 CBD        76.5994   56.8032   33.8212 a1         1 CLA     -0.053900
     10 NB         77.7158   60.7209   39.1291 nm         1 CLA     -0.295700
     11 OBD        74.5628   55.4292   33.3482 o2         1 CLA     -0.494600
     12 CGA        80.8866   57.8727   31.7615 c4         1 CLA      0.827000
     13 CGD        77.6667   55.7546   33.6573 c4         1 CLA      0.655300
     14 ND         75.3937   58.1310   36.9976 nm         1 CLA     -0.291600
     15 CED        78.2583   53.4462   34.0266 a3         1 CLA      0.005400
     16 CHA        76.8413   57.7069   34.9953 cs         1 CLA     -0.123800
     17 CHB        79.5466   60.8903   37.5005 aa         1 CLA     -0.291900
     18 CHC        76.4232   60.6056   41.2815 aa         1 CLA     -0.090400
     19 CHD        73.5626   57.5700   38.6982 aa         1 CLA     -0.052000
     20 CMA        81.4353   59.1063   35.8940 a3         1 CLA     -0.230700
     21 CMB        80.8684   62.5756   39.8889 a3         1 CLA     -0.180800
     22 CMC        74.3099   59.7061   43.2571 a3         1 CLA     -0.134000
     23 CMD        72.3729   55.7930   36.2501 a3         1 CLA     -0.141100
     24 C1         82.0242   55.8781   32.6506 a2         1 CLA      0.023000
     25 C1A        77.9564   58.5285   35.3058 ac         1 CLA     -0.015100
     26 C1B        78.9961   61.1493   38.8196 cr         1 CLA      0.054700
     27 C1C        75.3641   59.7666   40.8936 cn         1 CLA     -0.005600
     28 C1D        74.1645   57.4361   37.3793 ap         1 CLA     -0.047300
     29 O1A        80.8609   57.3648   30.6514 o2         1 CLA     -0.610800
     30 O1D        78.5848   55.8338   32.8319 o2         1 CLA     -0.558200
     31 C2         82.6329   55.6070   34.0352 c8         1 CLA     -0.325100
     32 C2A        79.2376   58.6767   34.5125 a1         1 CLA      0.098600
     33 C2B        79.5774   61.8434   39.9509 cb         1 CLA      0.088500
     34 C2C        74.2597   59.3558   41.7774 cb         1 CLA      0.053700
     35 C2D        73.7394   56.5990   36.3086 cb         1 CLA      0.058900
     36 O2A        81.6928   57.3285   32.7510 o1         1 CLA     -0.437200
     37 O2D        77.5171   54.6178   34.4184 o1         1 CLA     -0.357600
     38 C3         83.8623   55.3175   34.4408 c5         1 CLA      0.031200
     39 C3A        80.0946   59.6641   35.3607 a1         1 CLA      0.166800
     40 C3B        78.6154   61.8186   41.0455 cb         1 CLA      0.035000
     41 C3C        73.4063   58.5101   41.0127 cb         1 CLA     -0.089900
     42 C3D        74.7710   56.7046   35.3589 cb         1 CLA     -0.035900
     43 C4         84.2123   53.8458   34.7591 a3         1 CLA     -0.053300
     44 C4A        79.1478   60.0550   36.4674 ac         1 CLA      0.001800
     45 C4B        77.4996   61.0482   40.5021 cn         1 CLA     -0.020900
     46 C4C        74.0530   58.4134   39.7245 cr         1 CLA     -0.044400
     47 C4D        75.7473   57.6046   35.8263 c6         1 CLA     -0.046000
     48 C5         84.9296   56.3685   34.3183 a2         1 CLA     -0.070400
     49 C6         85.0246   57.3358   35.5386 a2         1 CLA      0.043900
     50 C7         85.4149   56.5785   36.7827 a2         1 CLA     -0.150000
     51 C8         85.9568   57.4461   37.9412 a1         1 CLA      0.064200
     52 C9         87.4142   58.0157   37.7161 a3         1 CLA     -0.259300
     53 C10        85.8484   56.6620   39.2908 a2         1 CLA     -0.071900
     54 C11        86.4209   57.4986   40.5277 a2         1 CLA      0.014500
     55 C12        85.4504   57.4694   41.7750 a2         1 CLA     -0.112100
     56 C13        85.4670   58.6047   42.8656 a1         1 CLA      0.089200
     57 C14        86.8757   58.5642   43.6589 a3         1 CLA     -0.239100
     58 C15        84.3244   58.4956   43.9695 a2         1 CLA     -0.102200
     59 C16        82.9396   58.6346   43.3714 a2         1 CLA      0.023900
     60 C17        81.7927   58.9398   44.4609 a2         1 CLA     -0.105700
     61 C18        80.3295   59.0741   43.8432 a1         1 CLA      0.206800
     62 C19        79.8123   57.7076   43.4297 a3         1 CLA     -0.280100
     63 C20        79.4382   59.7957   44.8362 a3         1 CLA     -0.280100
     64 NC         75.1706   59.2000   39.6551 nx         1 CLA     -0.309200
     65 MG         76.4813   59.5173   37.9516 mg         1 CLA      0.895000
     66 HMD3       72.4473   55.0451   35.4716 dc         1 CLA      0.064300
     67 HMD2       72.2642   55.2847   37.1686 dc         1 CLA      0.064300
     68 HMD1       71.6145   56.5443   36.0571 dc         1 CLA      0.064300
     69 HMC3       75.3119   59.4665   43.5546 dc         1 CLA      0.052100
     70 HMC2       73.9147   60.7083   43.4176 dc         1 CLA      0.052100
     71 HMC1       73.6091   59.0340   43.7554 dc         1 CLA      0.052100
     72 HMB3       81.5274   61.8995   40.4933 dc         1 CLA      0.063600
     73 HMB2       81.3086   62.7281   38.9078 dc         1 CLA      0.063600
     74 HMB1       80.8379   63.5326   40.3400 dc         1 CLA      0.063600
     75 HMA3       81.2769   58.2248   36.4694 dc         1 CLA      0.058300
     76 HMA2       82.0419   58.7110   35.0640 dc         1 CLA      0.058300
     77 HMA1       81.9444   59.9588   36.3858 dc         1 CLA      0.058300
     78 HED3       77.8232   52.9032   33.1910 dc         1 CLA      0.079300
     79 HED2       79.2824   53.6148   33.7668 dc         1 CLA      0.079300
     80 HED1       78.2852   52.7640   34.8733 dc         1 CLA      0.079300
     81 HBC3       71.0484   55.9462   41.5167 dc         1 CLA      0.016300
     82 HBC2       72.3196   55.8920   40.4569 dc         1 CLA      0.016300
     83 HBC1       72.7084   55.7029   42.1441 dc         1 CLA      0.016300
     84 HBB2       79.7269   63.1134   44.1206 da         1 CLA      0.183000
     85 HBB1       80.7215   62.6530   42.5346 da         1 CLA      0.183000
     86 HBA2       80.0274   59.6905   31.2447 dc         1 CLA      0.029400
     87 HBA1       81.0986   59.8304   32.6558 dc         1 CLA      0.029400
     88 HAC2       71.8918   58.1735   42.4797 dc         1 CLA      0.029300
     89 HAC1       71.2912   58.0791   40.8233 dc         1 CLA      0.029300
     90 HAA2       78.3734   58.4608   32.4403 dc         1 CLA      0.028700
     91 HAA1       78.6151   60.1614   33.0915 dc         1 CLA      0.028700
     92 H203       79.9121   60.7681   45.0237 dc         1 CLA      0.065600
     93 H202       78.5422   59.8568   44.2715 dc         1 CLA      0.065600
     94 H201       79.2790   59.4312   45.8750 dc         1 CLA      0.065600
     95 H193       79.7115   57.1689   44.3806 dc         1 CLA      0.065600
     96 H192       78.8429   57.9845   43.0299 dc         1 CLA      0.065600
     97 H191       80.4111   57.1510   42.6930 dc         1 CLA      0.065600
     98 H172       81.7723   58.0782   45.1639 dc         1 CLA      0.027600
     99 H171       82.0333   59.9025   44.9446 dc         1 CLA      0.027600
    100 H162       82.9877   59.5775   42.8049 dc         1 CLA      0.002900
    101 H161       82.6908   57.8039   42.7534 dc         1 CLA      0.002900
    102 H152       84.6003   57.5513   44.4889 dc         1 CLA      0.029100
    103 H151       84.5430   59.2601   44.7494 dc         1 CLA      0.029100
    104 H143       87.7409   58.5033   43.0593 dc         1 CLA      0.063600
    105 H142       86.9640   59.4827   44.2638 dc         1 CLA      0.063600
    106 H141       86.8918   57.6175   44.2521 dc         1 CLA      0.063600
    107 H122       84.4886   57.3507   41.4272 dc         1 CLA      0.032500
    108 H121       85.6939   56.6377   42.4013 dc         1 CLA      0.032500
    109 H112       87.4480   57.2599   40.8138 dc         1 CLA      0.006600
    110 H111       86.6326   58.4804   40.1411 dc         1 CLA      0.006600
    111 H102       84.8273   56.5445   39.3973 dc         1 CLA      0.024100
    112 H101       86.3339   55.6596   39.2754 dc         1 CLA      0.024100
    113 HHD        72.5620   57.1703   38.8341 da         1 CLA      0.174300
    114 HHC        76.4150   60.9163   42.3378 da         1 CLA      0.136800
    115 HHB        80.4626   61.4193   37.2719 da         1 CLA      0.138300
    116 HBD        76.3114   57.2474   32.8468 dc         1 CLA      0.107700
    117 HAB        77.7174   62.4090   42.9605 da         1 CLA      0.155200
    118 H93        87.6657   58.8086   38.4466 dc         1 CLA      0.069500
    119 H92        88.1334   57.1734   37.8043 dc         1 CLA      0.069500
    120 H91        87.3447   58.4929   36.7561 dc         1 CLA      0.069500
    121 H8         85.2602   58.2891   38.0120 dc         1 CLA      0.029300
    122 H72        84.5134   56.1169   37.1906 dc         1 CLA      0.044400
    123 H71        86.1404   55.7601   36.6282 dc         1 CLA      0.044400
    124 H62        85.8530   58.0315   35.2698 dc         1 CLA      0.015600
    125 H61        84.0733   57.8362   35.6964 dc         1 CLA      0.015600
    126 H52        85.9513   55.8865   34.2619 dc         1 CLA      0.033200
    127 H51        84.5007   56.9516   33.4524 dc         1 CLA      0.033200
    128 H43        85.0980   53.7727   35.3412 dc         1 CLA      0.037000
    129 H42        83.4735   53.5329   35.4550 dc         1 CLA      0.037000
    130 H41        84.1968   53.1710   33.9059 dc         1 CLA      0.037000
    131 H3A        80.2635   60.6019   34.7540 dc         1 CLA      0.041100
    132 H2A        79.6970   57.6587   34.3904 dc         1 CLA      0.083100
    133 H2         82.0842   56.0068   34.9078 da         1 CLA      0.180900
    134 H18        80.4798   59.6370   42.9403 dc         1 CLA     -0.003900
    135 H13        85.2444   59.5638   42.3347 dc         1 CLA      0.019700
    136 H12        81.1297   55.2938   32.3882 dc         1 CLA      0.120400
    137 H11        82.6933   55.7961   31.8224 dc         1 CLA      0.120400
    138 C1         69.2315   62.2612   49.2590 Z1         2 LUT      0.509236
    139 C2         67.9364   62.0578   50.0131 Z2         2 LUT     -0.434695
    140 C3         67.1280   63.4124   50.2798 Z3         2 LUT      0.437453
    141 O3         67.3589   64.0245   51.5703 S1         2 LUT     -0.547129
    142 C4         67.1776   64.3101   49.1722 Z4         2 LUT     -0.468603
    143 C5         67.9200   63.9118   47.8893 Z5         2 LUT      0.279246
    144 C6         68.9319   62.9617   47.9186 Z6         2 LUT     -0.305473
    145 C7         69.4999   62.3284   46.6664 Z7         2 LUT      0.069402
    146 C8         70.4728   62.9252   46.0004 Z8         2 LUT     -0.191631
    147 C9         71.1029   62.5364   44.6647 Z9         2 LUT      0.196698
    148 C10        72.0445   63.3803   44.0809 Y1         2 LUT     -0.208611
    149 C11        72.8186   63.1949   42.8359 Y2         2 LUT      0.030784
    150 C12        73.9535   63.9545   42.5493 Y3         2 LUT     -0.220316
    151 C13        74.8311   63.9915   41.3945 Y4         2 LUT      0.215937
    152 C14        76.0145   64.6968   41.4675 Y5         2 LUT     -0.185793
    153 C15        77.0384   64.7688   40.4473 Y6         2 LUT     -0.057835
    154 C16        70.0092   60.8652   49.2420 Y7         2 LUT     -0.405615
    155 C17        70.1267   63.2224   50.1687 Y7         2 LUT     -0.405615
    156 C18        67.3283   64.5748   46.6528 Y9         2 LUT     -0.369639
    157 C19        70.7042   61.1735   44.0206 W1         2 LUT     -0.333362
    158 C20        74.3455   63.4311   40.0659 W2         2 LUT     -0.323439
    159 C21        87.9411   66.6401   34.3814 Z1         2 LUT      0.406104
    160 C22        88.8350   65.9017   33.3368 Z2         2 LUT     -0.404965
    161 C23        89.1322   66.8417   32.1180 Z3         2 LUT      0.391255
    162 O23        89.6793   66.1118   31.0405 S1         2 LUT     -0.528210
    163 C24        87.9226   67.6821   31.7516 W6         2 LUT     -0.258361
    164 C25        86.8197   67.8239   32.4342 Z5         2 LUT      0.133546
    165 C26        86.5871   67.1479   33.7886 W8         2 LUT     -0.147008
    166 C27        85.7358   67.8629   34.7233 Z7         2 LUT      0.023843
    167 C28        84.7196   67.2420   35.4116 Z8         2 LUT     -0.216987
    168 C29        84.2906   67.5150   36.7602 Z9         2 LUT      0.206524
    169 C30        83.2447   66.7825   37.2565 Y1         2 LUT     -0.215556
    170 C31        82.4991   66.9028   38.5165 Y2         2 LUT      0.025142
    171 C32        81.3734   66.1728   38.6226 Y3         2 LUT     -0.212209
    172 C33        80.4295   66.2634   39.6793 Y4         2 LUT      0.240937
    173 C34        79.2178   65.5134   39.6416 Y5         2 LUT     -0.218862
    174 C35        78.1483   65.5693   40.5513 Y6         2 LUT     -0.023547
    175 C36        88.7952   67.7365   35.0780 Y7         2 LUT     -0.393485
    176 C37        87.7412   65.5297   35.4646 Y7         2 LUT     -0.393485
    177 C38        85.6100   68.4984   31.8371 Y9         2 LUT     -0.387526
    178 C39        84.9981   68.4766   37.6700 W1         2 LUT     -0.322618
    179 C40        80.8932   66.9164   40.9704 W2         2 LUT     -0.358472
    180 H403       80.7743   68.0062   41.0182 R7         2 LUT      0.097720
    181 H402       80.3178   66.5243   41.8341 R7         2 LUT      0.097720
    182 H401       81.9716   66.5964   41.2932 R7         2 LUT      0.097720
    183 H393       85.6340   68.0102   38.3975 R4         2 LUT      0.082505
    184 H392       85.6761   69.2021   37.1730 R4         2 LUT      0.082505
    185 H391       84.2861   69.1084   38.1701 R4         2 LUT      0.082505
    186 H383       84.6526   67.9405   32.0347 R1         2 LUT      0.104030
    187 H382       85.4156   69.5114   32.1852 R1         2 LUT      0.104030
    188 H381       85.6528   68.4387   30.7406 R1         2 LUT      0.104030
    189 H373       87.3199   64.6394   35.0685 T4         2 LUT      0.089537
    190 H372       88.7433   65.3077   35.8453 T4         2 LUT      0.089537
    191 H371       87.0540   65.8879   36.2685 T4         2 LUT      0.089537
    192 H363       89.0062   68.5790   34.4282 T4         2 LUT      0.089537
    193 H362       88.2522   68.1556   35.9782 T4         2 LUT      0.089537
    194 H361       89.7342   67.4379   35.5196 T4         2 LUT      0.089537
    195 H222       89.8196   65.6253   33.7426 U2         2 LUT      0.127376
    196 H221       88.2699   64.9716   33.0425 U2         2 LUT      0.127376
    197 H203       73.2206   63.4918   40.0358 R7         2 LUT      0.087068
    198 H202       74.6392   63.9950   39.1954 R7         2 LUT      0.087068
    199 H201       74.6551   62.3916   39.9355 R7         2 LUT      0.087068
    200 H193       70.9185   60.3128   44.5536 R4         2 LUT      0.089716
    201 H192       69.6421   61.2447   43.8161 R4         2 LUT      0.089716
    202 H191       71.0912   61.0376   43.0034 R4         2 LUT      0.089716
    203 H183       67.4849   65.6829   46.7505 R1         2 LUT      0.094572
    204 H182       67.7382   64.2906   45.6912 R1         2 LUT      0.094572
    205 H181       66.3172   64.4204   46.6211 R1         2 LUT      0.094572
    206 H173       69.6446   64.1844   50.3164 T4         2 LUT      0.093752
    207 H172       70.1490   62.7753   51.1479 T4         2 LUT      0.093752
    208 H171       71.0809   63.3101   49.7600 T4         2 LUT      0.093752
    209 H163       69.5154   59.9477   48.9266 T4         2 LUT      0.093752
    210 H162       71.0069   60.9468   48.7677 T4         2 LUT      0.093752
    211 H161       70.3698   60.6208   50.2923 T4         2 LUT      0.093752
    212 HO3        67.5219   63.4187   52.2908 Q1         2 LUT      0.300121
    213 H8         70.8182   63.8572   46.3555 U7         2 LUT      0.080784
    214 H7         68.9393   61.4074   46.4153 U6         2 LUT      0.042190
    215 H42        66.1103   64.5894   49.0231 U5         2 LUT      0.145166
    216 H41        67.4719   65.3246   49.4995 U5         2 LUT      0.145166
    217 H35        78.2142   66.1001   41.4897 T3         2 LUT      0.077919
    218 H34        79.2585   64.8633   38.8387 T2         2 LUT      0.073626
    219 H32        81.0803   65.4147   37.8667 T1         2 LUT      0.092510
    220 H31        82.8216   67.6132   39.3214 U9         2 LUT      0.070048
    221 H30        82.8812   66.0806   36.5248 U8         2 LUT      0.085442
    222 H3         66.0977   63.0791   50.4542 U3         2 LUT     -0.031596
    223 H28        84.1840   66.4164   34.9514 U7         2 LUT      0.084728
    224 H27        86.1914   68.7726   35.1185 U6         2 LUT      0.087291
    225 H26        86.0798   66.2980   33.3670 Q6         2 LUT      0.075325
    226 H24        88.0933   68.2096   30.7979 Q5         2 LUT      0.094482
    227 H23        89.7408   67.7154   32.4067 U3         2 LUT     -0.024869
    228 H22        67.2602   61.3693   49.4747 U2         2 LUT      0.127376
    229 H21        68.1667   61.5270   50.9701 U2         2 LUT      0.127376
    230 H15        77.0093   64.2452   39.5023 T3         2 LUT      0.093200
    231 H14        76.2690   65.0956   42.4280 T2         2 LUT      0.068865
    232 H12        74.2479   64.7473   43.2977 T1         2 LUT      0.095507
    233 H11        72.5589   62.4651   42.0661 U9         2 LUT      0.068930
    234 H10        72.3238   64.2840   44.6885 U8         2 LUT      0.083911
    235 H1         89.1427   65.7448   30.3610 Q1         2 LUT      0.297311
@<TRIPOS>BOND
    1     6     1 1
    2     7     2 1
    3     8     3 1
    4     9     4 1
    5    11     4 1
    6    12     6 1
    7    13     9 1
    8    16     9 1
    9    25     5 1
   10    25    16 1
   11    26    10 1
   12    26    17 1
   13    27    18 1
   14    28    14 1
   15    28    19 1
   16    29    12 1
   17    30    13 1
   18    31    24 1
   19    32     1 1
   20    32    25 1
   21    33    21 1
   22    33    26 1
   23    34    22 1
   24    34    27 1
   25    35    23 1
   26    35    28 1
   27    36    12 1
   28    36    24 1
   29    37    13 1
   30    37    15 1
   31    38    31 1
   32    39    20 1
   33    39    32 1
   34    40     2 1
   35    40    33 1
   36    41     3 1
   37    41    34 1
   38    42     4 1
   39    42    35 1
   40    43    38 1
   41    44     5 1
   42    44    17 1
   43    44    39 1
   44    45    10 1
   45    45    18 1
   46    45    40 1
   47    46    19 1
   48    46    41 1
   49    47    14 1
   50    47    16 1
   51    47    42 1
   52    48    38 1
   53    49    48 1
   54    50    49 1
   55    51    50 1
   56    52    51 1
   57    53    51 1
   58    54    53 1
   59    55    54 1
   60    56    55 1
   61    57    56 1
   62    58    56 1
   63    59    58 1
   64    60    59 1
   65    61    60 1
   66    62    61 1
   67    63    61 1
   68    64    27 1
   69    64    46 1
   70    65     5 1
   71    65    10 1
   72    65    64 1
   73    65    14 1
   74    66    23 1
   75    67    23 1
   76    68    23 1
   77    69    22 1
   78    70    22 1
   79    71    22 1
   80    72    21 1
   81    73    21 1
   82    74    21 1
   83    75    20 1
   84    76    20 1
   85    77    20 1
   86    78    15 1
   87    79    15 1
   88    80    15 1
   89    81     8 1
   90    82     8 1
   91    83     8 1
   92    84     7 1
   93    85     7 1
   94    86     6 1
   95    87     6 1
   96    88     3 1
   97    89     3 1
   98    90     1 1
   99    91     1 1
  100    92    63 1
  101    93    63 1
  102    94    63 1
  103    95    62 1
  104    96    62 1
  105    97    62 1
  106    98    60 1
  107    99    60 1
  108   100    59 1
  109   101    59 1
  110   102    58 1
  111   103    58 1
  112   104    57 1
  113   105    57 1
  114   106    57 1
  115   107    55 1
  116   108    55 1
  117   109    54 1
  118   110    54 1
  119   111    53 1
  120   112    53 1
  121   113    19 1
  122   114    18 1
  123   115    17 1
  124   116     9 1
  125   117     2 1
  126   118    52 1
  127   119    52 1
  128   120    52 1
  129   121    51 1
  130   122    50 1
  131   123    50 1
  132   124    49 1
  133   125    49 1
  134   126    48 1
  135   127    48 1
  136   128    43 1
  137   129    43 1
  138   130    43 1
  139   131    39 1
  140   132    32 1
  141   133    31 1
  142   134    61 1
  143   135    56 1
  144   136    24 1
  145   137    24 1
  146   139   138 1
  147   140   139 1
  148   141   140 1
  149   142   140 1
  150   143   142 1
  151   144   138 1
  152   144   143 1
  153   145   144 1
  154   146   145 1
  155   147   146 1
  156   148   147 1
  157   149   148 1
  158   150   149 1
  159   151   150 1
  160   152   151 1
  161   153   152 1
  162   154   138 1
  163   155   138 1
  164   156   143 1
  165   157   147 1
  166   158   151 1
  167   160   159 1
  168   161   160 1
  169   162   161 1
  170   163   161 1
  171   164   163 1
  172   165   159 1
  173   165   164 1
  174   166   165 1
  175   167   166 1
  176   168   167 1
  177   169   168 1
  178   170   169 1
  179   171   170 1
  180   172   171 1
  181   173   172 1
  182   174   153 1
  183   174   173 1
  184   175   159 1
  185   176   159 1
  186   177   164 1
  187   178   168 1
  188   179   172 1
  189   180   179 1
  190   181   179 1
  191   182   179 1
  192   183   178 1
  193   184   178 1
  194   185   178 1
  195   186   177 1
  196   187   177 1
  197   188   177 1
  198   189   176 1
  199   190   176 1
  200   191   176 1
  201   192   175 1
  202   193   175 1
  203   194   175 1
  204   195   160 1
  205   196   160 1
  206   197   158 1
  207   198   158 1
  208   199   158 1
  209   200   157 1
  210   201   157 1
  211   202   157 1
  212   203   156 1
  213   204   156 1
  214   205   156 1
  215   206   155 1
  216   207   155 1
  217   208   155 1
  218   209   154 1
  219   210   154 1
  220   211   154 1
  221   212   141 1
  222   213   146 1
  223   214   145 1
  224   215   142 1
  225   216   142 1
  226   217   174 1
  227   218   173 1
  228   219   171 1
  229   220   170 1
  230   221   169 1
  231   222   140 1
  232   223   167 1
  233   224   166 1
  234   225   165 1
  235   226   163 1
  236   227   161 1
  237   228   139 1
  238   229   139 1
  239   230   153 1
  240   231   152 1
  241   232   150 1
  242   233   149 1
  243   234   148 1
  244   235   162 1
  245   65    153 1
  246   65    174 1
@<TRIPOS>SUBSTRUCTURE
      1 CLA               1 ****               0 ****  **** 
      2 LUT             138 ****               0 ****  **** 
