@<TRIPOS>MOLECULE
Cpptraj generated mol2 file.
  235   246     2     0     0
SMALL
USER_CHARGES


@<TRIPOS>ATOM
      1 CAA        77.3273   59.0331   33.6775 a2         1 CLA     -0.055900
      2 CAB        77.4998   61.8819   43.1249 c8         1 CLA     -0.148500
      3 CAC        70.6840   57.9091   42.3696 a2         1 CLA     -0.012600
      4 CAD        73.3335   56.2720   34.7024 ck         1 CLA      0.398800
      5 NA         76.4013   59.1645   37.1908 ns         1 CLA     -0.225500
      6 CBA        78.5619   58.7977   32.7861 a2         1 CLA     -0.135000
      7 CBB        78.4887   61.3547   43.9018 c0         1 CLA     -0.395200
      8 CBC        70.8789   56.4373   42.6281 a3         1 CLA     -0.037700
      9 CBD        74.7649   56.9412   34.4135 a1         1 CLA     -0.053900
     10 NB         76.3076   60.4720   39.9026 nm         1 CLA     -0.295700
     11 OBD        72.7368   55.4557   33.9975 o2         1 CLA     -0.494600
     12 CGA        78.9646   57.3677   32.3926 c4         1 CLA      0.827000
     13 CGD        75.6806   55.8391   33.9979 c4         1 CLA      0.655300
     14 ND         73.5986   58.2390   37.6907 nm         1 CLA     -0.291600
     15 CED        76.5409   53.7523   34.3889 a3         1 CLA      0.005400
     16 CHA        75.0994   57.7241   35.6967 cs         1 CLA     -0.123800
     17 CHB        78.2113   60.5014   38.3774 aa         1 CLA     -0.291900
     18 CHC        74.9839   60.5163   41.9479 aa         1 CLA     -0.090400
     19 CHD        71.8082   57.9319   39.3503 aa         1 CLA     -0.052000
     20 CMA        79.6613   58.3151   36.7188 a3         1 CLA     -0.230700
     21 CMB        79.7172   62.0012   40.7061 a3         1 CLA     -0.180800
     22 CMC        72.5291   59.7798   43.9425 a3         1 CLA     -0.134000
     23 CMD        70.5679   56.1072   36.8924 a3         1 CLA     -0.141100
     24 C1         80.0039   55.2641   33.0605 a2         1 CLA      0.023000
     25 C1A        76.2777   58.4393   36.0170 ac         1 CLA     -0.015100
     26 C1B        77.6164   60.8352   39.5714 cr         1 CLA      0.054700
     27 C1C        73.8228   59.8311   41.6283 cn         1 CLA     -0.005600
     28 C1D        72.4226   57.6571   38.0653 ap         1 CLA     -0.047300
     29 O1A        78.6660   56.8029   31.3122 o2         1 CLA     -0.610800
     30 O1D        76.2872   55.9006   32.9517 o2         1 CLA     -0.558200
     31 C2         80.6929   54.5514   34.2422 c8         1 CLA     -0.325100
     32 C2A        77.5531   58.4506   35.1437 a1         1 CLA      0.098600
     33 C2B        78.3018   61.4841   40.7431 cb         1 CLA      0.088500
     34 C2C        72.6490   59.4888   42.5159 cb         1 CLA      0.053700
     35 C2D        71.9586   56.8555   36.9168 cb         1 CLA      0.058900
     36 O2A        79.6824   56.6782   33.3195 o1         1 CLA     -0.437200
     37 O2D        75.7838   54.8310   34.9277 o1         1 CLA     -0.357600
     38 C3         81.5438   53.5105   34.1738 c5         1 CLA      0.031200
     39 C3A        78.5824   59.2264   36.1610 a1         1 CLA      0.166800
     40 C3B        77.3613   61.4458   41.7350 cb         1 CLA      0.035000
     41 C3C        71.8491   58.6234   41.7621 cb         1 CLA     -0.089900
     42 C3D        72.9563   56.7661   35.9795 cb         1 CLA     -0.035900
     43 C4         81.0674   52.0786   34.3772 a3         1 CLA     -0.053300
     44 C4A        77.6814   59.7417   37.3291 ac         1 CLA      0.001800
     45 C4B        76.1658   60.7993   41.2055 cn         1 CLA     -0.020900
     46 C4C        72.3529   58.7031   40.4448 cr         1 CLA     -0.044400
     47 C4D        74.0041   57.6034   36.5274 c6         1 CLA     -0.046000
     48 C5         83.0807   53.7945   34.2818 a2         1 CLA     -0.070400
     49 C6         83.6687   55.1679   34.6636 a2         1 CLA      0.043900
     50 C7         83.7671   55.3713   36.2515 a2         1 CLA     -0.150000
     51 C8         84.0781   56.8279   36.6783 a1         1 CLA      0.064200
     52 C9         85.4981   57.2532   36.0894 a3         1 CLA     -0.259300
     53 C10        83.9539   56.8823   38.2446 a2         1 CLA     -0.071900
     54 C11        82.5842   56.9648   38.8937 a2         1 CLA      0.014500
     55 C12        82.7150   56.7159   40.4527 a2         1 CLA     -0.112100
     56 C13        81.3676   56.7549   41.3090 a1         1 CLA      0.089200
     57 C14        80.3850   57.9097   40.9270 a3         1 CLA     -0.239100
     58 C15        81.6097   56.5926   42.8512 a2         1 CLA     -0.102200
     59 C16        81.6664   57.8782   43.7379 a2         1 CLA      0.023900
     60 C17        82.8401   58.7989   43.2733 a2         1 CLA     -0.105700
     61 C18        83.0923   60.1104   44.0441 a1         1 CLA      0.206800
     62 C19        81.9247   61.1141   44.0643 a3         1 CLA     -0.280100
     63 C20        83.5927   59.9178   45.4916 a3         1 CLA     -0.280100
     64 NC         73.5135   59.3826   40.3526 nx         1 CLA     -0.309200
     65 MG         74.8487   59.4988   38.6221 mg         1 CLA      0.895000
     66 HMD3       70.5417   55.3291   36.1381 dc         1 CLA      0.064300
     67 HMD2       70.3521   55.7342   37.9121 dc         1 CLA      0.064300
     68 HMD1       69.8605   56.8983   36.6414 dc         1 CLA      0.064300
     69 HMC3       72.9777   58.9786   44.4925 dc         1 CLA      0.052100
     70 HMC2       72.9273   60.7964   44.0454 dc         1 CLA      0.052100
     71 HMC1       71.4897   59.8509   44.2942 dc         1 CLA      0.052100
     72 HMB3       79.8284   62.7998   40.0055 dc         1 CLA      0.063600
     73 HMB2       79.9228   62.5254   41.6814 dc         1 CLA      0.063600
     74 HMB1       80.4153   61.2403   40.5593 dc         1 CLA      0.063600
     75 HMA3       80.2915   58.9733   37.3210 dc         1 CLA      0.058300
     76 HMA2       79.2239   57.3824   37.1773 dc         1 CLA      0.058300
     77 HMA1       80.3668   57.9106   35.9761 dc         1 CLA      0.058300
     78 HED3       77.6311   53.8413   34.5595 dc         1 CLA      0.079300
     79 HED2       76.3669   52.8156   34.9013 dc         1 CLA      0.079300
     80 HED1       76.3684   53.5684   33.3487 dc         1 CLA      0.079300
     81 HBC3       71.1709   55.8364   41.7598 dc         1 CLA      0.016300
     82 HBC2       71.7645   56.3680   43.2623 dc         1 CLA      0.016300
     83 HBC1       70.0971   55.8749   43.2318 dc         1 CLA      0.016300
     84 HBB2       78.4753   61.5341   44.9695 da         1 CLA      0.183000
     85 HBB1       79.1897   60.6538   43.4277 da         1 CLA      0.183000
     86 HBA2       78.4497   59.4194   31.9097 dc         1 CLA      0.029400
     87 HBA1       79.4281   59.2365   33.3050 dc         1 CLA      0.029400
     88 HAC2       70.3812   58.3636   43.3016 dc         1 CLA      0.029300
     89 HAC1       69.8059   57.9180   41.7239 dc         1 CLA      0.029300
     90 HAA2       76.5390   58.5190   33.2247 dc         1 CLA      0.028700
     91 HAA1       77.0750   60.0887   33.6602 dc         1 CLA      0.028700
     92 H203       84.5837   59.4139   45.4509 dc         1 CLA      0.065600
     93 H202       83.6869   60.8984   45.8877 dc         1 CLA      0.065600
     94 H201       82.8958   59.3111   46.0529 dc         1 CLA      0.065600
     95 H193       81.5033   61.0599   43.0618 dc         1 CLA      0.065600
     96 H192       81.2206   60.7284   44.8029 dc         1 CLA      0.065600
     97 H191       82.0963   62.1797   44.3214 dc         1 CLA      0.065600
     98 H172       83.7110   58.2007   43.1771 dc         1 CLA      0.027600
     99 H171       82.6818   59.1614   42.2608 dc         1 CLA      0.027600
    100 H162       80.7713   58.4114   43.6087 dc         1 CLA      0.002900
    101 H161       81.7955   57.6199   44.7811 dc         1 CLA      0.002900
    102 H152       80.7083   56.0692   43.1955 dc         1 CLA      0.029100
    103 H151       82.4819   56.0016   43.0340 dc         1 CLA      0.029100
    104 H143       79.4658   57.8884   41.4589 dc         1 CLA      0.063600
    105 H142       80.9858   58.7651   41.2607 dc         1 CLA      0.063600
    106 H141       80.2119   57.9088   39.8255 dc         1 CLA      0.063600
    107 H122       83.1423   55.7735   40.5982 dc         1 CLA      0.032500
    108 H121       83.4466   57.4630   40.8187 dc         1 CLA      0.032500
    109 H112       82.1734   57.9799   38.7148 dc         1 CLA      0.006600
    110 H111       81.9943   56.1488   38.5188 dc         1 CLA      0.006600
    111 H102       84.4943   56.1184   38.7789 dc         1 CLA      0.024100
    112 H101       84.5276   57.7861   38.4826 dc         1 CLA      0.024100
    113 HHD        70.8802   57.3303   39.5715 da         1 CLA      0.174300
    114 HHC        74.8726   60.9836   42.9176 da         1 CLA      0.136800
    115 HHB        79.1910   60.8875   38.2989 da         1 CLA      0.138300
    116 HBD        74.5490   57.6700   33.6373 dc         1 CLA      0.107700
    117 HAB        76.6943   62.4641   43.6055 da         1 CLA      0.155200
    118 H93        85.6588   58.2922   36.3310 dc         1 CLA      0.069500
    119 H92        86.3879   56.7376   36.4389 dc         1 CLA      0.069500
    120 H91        85.5264   57.2213   35.0086 dc         1 CLA      0.069500
    121 H8         83.3672   57.6010   36.2699 dc         1 CLA      0.029300
    122 H72        82.7410   55.1513   36.6812 dc         1 CLA      0.044400
    123 H71        84.4103   54.5896   36.6345 dc         1 CLA      0.044400
    124 H62        84.6750   55.1682   34.2927 dc         1 CLA      0.015600
    125 H61        83.1761   55.9539   34.1148 dc         1 CLA      0.015600
    126 H52        83.4144   53.0089   34.9551 dc         1 CLA      0.033200
    127 H51        83.5742   53.6546   33.3275 dc         1 CLA      0.033200
    128 H43        80.3087   51.7613   33.6531 dc         1 CLA      0.037000
    129 H42        81.8766   51.4081   34.2789 dc         1 CLA      0.037000
    130 H41        80.6386   51.8908   35.3786 dc         1 CLA      0.037000
    131 H3A        78.9695   60.1603   35.7326 dc         1 CLA      0.041100
    132 H2A        77.8175   57.3640   35.0281 dc         1 CLA      0.083100
    133 H2         80.5539   54.9753   35.2716 da         1 CLA      0.180900
    134 H18        83.9507   60.5422   43.5726 dc         1 CLA     -0.003900
    135 H13        80.9355   55.8434   40.8804 dc         1 CLA      0.019700
    136 H12        79.1517   54.5760   32.8793 dc         1 CLA      0.120400
    137 H11        80.6017   55.1787   32.1489 dc         1 CLA      0.120400
    138 C1         68.4781   60.8517   49.7513 Z1         2 LUT      0.509236
    139 C2         68.5372   61.7013   51.0526 Z2         2 LUT     -0.434695
    140 C3         67.0753   62.2181   51.4329 Z3         2 LUT      0.437453
    141 O3         67.1824   63.0745   52.5793 S1         2 LUT     -0.547129
    142 C4         66.4352   63.0052   50.3530 Z4         2 LUT     -0.468603
    143 C5         66.8610   62.6696   48.8630 Z5         2 LUT      0.279246
    144 C6         67.7813   61.6591   48.6610 Z6         2 LUT     -0.305473
    145 C7         68.3335   61.4902   47.2747 Z7         2 LUT      0.069402
    146 C8         69.2396   62.2202   46.5733 Z8         2 LUT     -0.191631
    147 C9         69.5424   62.0130   45.1039 Z9         2 LUT      0.196698
    148 C10        70.5386   62.7396   44.5553 Y1         2 LUT     -0.208611
    149 C11        70.9476   62.9562   43.2032 Y2         2 LUT      0.030784
    150 C12        72.1414   63.4926   42.9003 Y3         2 LUT     -0.220316
    151 C13        72.8239   63.5275   41.6754 Y4         2 LUT      0.215937
    152 C14        74.1339   64.0046   41.6605 Y5         2 LUT     -0.185793
    153 C15        75.0849   64.1664   40.6820 Y6         2 LUT     -0.057835
    154 C16        67.5521   59.6272   49.9972 Y7         2 LUT     -0.405615
    155 C17        69.8494   60.3638   49.3955 Y7         2 LUT     -0.405615
    156 C18        66.3573   63.6794   47.8975 Y9         2 LUT     -0.369639
    157 C19        68.6053   61.0509   44.4149 W1         2 LUT     -0.333362
    158 C20        72.2036   62.8875   40.4196 W2         2 LUT     -0.323439
    159 C21        86.0211   65.7821   34.5741 Z1         2 LUT      0.406104
    160 C22        86.7760   65.3490   33.3356 Z2         2 LUT     -0.404965
    161 C23        87.0373   66.4716   32.2465 Z3         2 LUT      0.391255
    162 O23        87.7512   65.9704   31.1313 S1         2 LUT     -0.528210
    163 C24        85.8193   67.2815   32.0255 W6         2 LUT     -0.258361
    164 C25        84.7784   67.3476   32.7969 Z5         2 LUT      0.133546
    165 C26        84.7164   66.5232   34.1619 W8         2 LUT     -0.147008
    166 C27        84.0362   67.4017   35.2669 Z7         2 LUT      0.023843
    167 C28        82.8806   66.8942   35.7717 Z8         2 LUT     -0.216987
    168 C29        82.2600   67.1616   37.1304 Z9         2 LUT      0.206524
    169 C30        81.3647   66.2771   37.5262 Y1         2 LUT     -0.215556
    170 C31        80.5387   66.3923   38.7030 Y2         2 LUT      0.025142
    171 C32        79.5277   65.4698   38.8559 Y3         2 LUT     -0.212209
    172 C33        78.5434   65.4205   39.9576 Y4         2 LUT      0.240937
    173 C34        77.3919   64.7244   39.7815 Y5         2 LUT     -0.218862
    174 C35        76.3188   64.8065   40.7610 Y6         2 LUT     -0.023547
    175 C36        86.9260   66.7889   35.3063 Y7         2 LUT     -0.393485
    176 C37        85.8695   64.5684   35.5403 Y7         2 LUT     -0.393485
    177 C38        83.5464   68.0473   32.4014 Y9         2 LUT     -0.387526
    178 C39        82.7711   68.4350   37.8574 W1         2 LUT     -0.322618
    179 C40        79.1291   65.8152   41.3279 W2         2 LUT     -0.358472
    180 H403       80.2047   65.5911   41.4791 R7         2 LUT      0.097720
    181 H402       79.0559   66.8860   41.4408 R7         2 LUT      0.097720
    182 H401       78.6384   65.4829   42.2217 R7         2 LUT      0.097720
    183 H393       83.4929   68.2039   38.6299 R4         2 LUT      0.082505
    184 H392       83.3476   69.0703   37.2346 R4         2 LUT      0.082505
    185 H391       81.8837   68.8959   38.2914 R4         2 LUT      0.082505
    186 H383       83.6982   68.5447   31.4044 R1         2 LUT      0.104030
    187 H382       82.7736   67.3480   32.2349 R1         2 LUT      0.104030
    188 H381       83.1254   68.7466   33.2298 R1         2 LUT      0.104030
    189 H373       85.2361   63.8206   34.9974 T4         2 LUT      0.089537
    190 H372       86.7649   64.0511   35.8023 T4         2 LUT      0.089537
    191 H371       85.3620   64.9433   36.4020 T4         2 LUT      0.089537
    192 H363       87.1096   67.7054   34.7638 T4         2 LUT      0.089537
    193 H362       86.4544   67.1067   36.2575 T4         2 LUT      0.089537
    194 H361       87.8539   66.3697   35.6086 T4         2 LUT      0.089537
    195 H222       87.7235   65.0055   33.6910 U2         2 LUT      0.127376
    196 H221       86.2307   64.4948   32.9351 U2         2 LUT      0.127376
    197 H203       72.9984   62.7540   39.6588 R7         2 LUT      0.087068
    198 H202       71.9267   61.8590   40.6928 R7         2 LUT      0.087068
    199 H201       71.4467   63.4106   40.0143 R7         2 LUT      0.087068
    200 H193       68.7841   60.9044   43.3359 R4         2 LUT      0.089716
    201 H192       68.7879   60.0691   44.8758 R4         2 LUT      0.089716
    202 H191       67.4882   61.2695   44.4940 R4         2 LUT      0.089716
    203 H183       66.0557   63.3046   46.9264 R1         2 LUT      0.094572
    204 H182       65.5430   64.2547   48.4075 R1         2 LUT      0.094572
    205 H181       67.1788   64.4224   47.8035 R1         2 LUT      0.094572
    206 H173       70.1602   59.6552   50.2536 T4         2 LUT      0.093752
    207 H172       69.8644   59.7278   48.4449 T4         2 LUT      0.093752
    208 H171       70.6335   61.0671   49.2265 T4         2 LUT      0.093752
    209 H163       67.9464   58.9932   50.8297 T4         2 LUT      0.093752
    210 H162       66.4613   59.8727   50.1758 T4         2 LUT      0.093752
    211 H161       67.5896   58.9138   49.1642 T4         2 LUT      0.093752
    212 HO3        67.1195   62.5068   53.3365 Q1         2 LUT      0.300121
    213 H8         69.8360   63.0141   46.9950 U7         2 LUT      0.080784
    214 H7         67.7951   60.7215   46.6626 U6         2 LUT      0.042190
    215 H42        65.3646   62.9945   50.3979 U5         2 LUT      0.145166
    216 H41        66.6425   64.0742   50.4816 U5         2 LUT      0.145166
    217 H35        76.4385   65.3729   41.6914 T3         2 LUT      0.077919
    218 H34        77.1979   64.2248   38.8838 T2         2 LUT      0.073626
    219 H32        79.3817   64.7883   38.0546 T1         2 LUT      0.092510
    220 H31        80.6097   67.1779   39.3996 U9         2 LUT      0.070048
    221 H30        81.2172   65.3663   36.8898 U8         2 LUT      0.085442
    222 H3         66.4026   61.3323   51.5666 U3         2 LUT     -0.031596
    223 H28        82.3407   66.1356   35.1443 U7         2 LUT      0.084728
    224 H27        84.6018   68.1314   35.8116 U6         2 LUT      0.087291
    225 H26        84.1200   65.6678   33.8489 Q6         2 LUT      0.075325
    226 H24        85.7391   67.8473   31.0362 Q5         2 LUT      0.094482
    227 H23        87.6576   67.2073   32.7160 U3         2 LUT     -0.024869
    228 H22        68.9878   61.0964   51.9059 U2         2 LUT      0.127376
    229 H21        69.1152   62.6694   50.9037 U2         2 LUT      0.127376
    230 H15        74.9912   63.6872   39.7077 T3         2 LUT      0.093200
    231 H14        74.4747   64.4997   42.5945 T2         2 LUT      0.068865
    232 H12        72.7697   63.9269   43.6668 T1         2 LUT      0.095507
    233 H11        70.4344   62.4705   42.4342 U9         2 LUT      0.068930
    234 H10        71.0557   63.3069   45.3604 U8         2 LUT      0.083911
    235 H1         87.1388   65.5332   30.5880 Q1         2 LUT      0.297311
@<TRIPOS>BOND
    1     6     1 1
    2     7     2 1
    3     8     3 1
    4     9     4 1
    5    11     4 1
    6    12     6 1
    7    13     9 1
    8    16     9 1
    9    25     5 1
   10    25    16 1
   11    26    10 1
   12    26    17 1
   13    27    18 1
   14    28    14 1
   15    28    19 1
   16    29    12 1
   17    30    13 1
   18    31    24 1
   19    32     1 1
   20    32    25 1
   21    33    21 1
   22    33    26 1
   23    34    22 1
   24    34    27 1
   25    35    23 1
   26    35    28 1
   27    36    12 1
   28    36    24 1
   29    37    13 1
   30    37    15 1
   31    38    31 1
   32    39    20 1
   33    39    32 1
   34    40     2 1
   35    40    33 1
   36    41     3 1
   37    41    34 1
   38    42     4 1
   39    42    35 1
   40    43    38 1
   41    44     5 1
   42    44    17 1
   43    44    39 1
   44    45    10 1
   45    45    18 1
   46    45    40 1
   47    46    19 1
   48    46    41 1
   49    47    14 1
   50    47    16 1
   51    47    42 1
   52    48    38 1
   53    49    48 1
   54    50    49 1
   55    51    50 1
   56    52    51 1
   57    53    51 1
   58    54    53 1
   59    55    54 1
   60    56    55 1
   61    57    56 1
   62    58    56 1
   63    59    58 1
   64    60    59 1
   65    61    60 1
   66    62    61 1
   67    63    61 1
   68    64    27 1
   69    64    46 1
   70    65     5 1
   71    65    10 1
   72    65    64 1
   73    65    14 1
   74    66    23 1
   75    67    23 1
   76    68    23 1
   77    69    22 1
   78    70    22 1
   79    71    22 1
   80    72    21 1
   81    73    21 1
   82    74    21 1
   83    75    20 1
   84    76    20 1
   85    77    20 1
   86    78    15 1
   87    79    15 1
   88    80    15 1
   89    81     8 1
   90    82     8 1
   91    83     8 1
   92    84     7 1
   93    85     7 1
   94    86     6 1
   95    87     6 1
   96    88     3 1
   97    89     3 1
   98    90     1 1
   99    91     1 1
  100    92    63 1
  101    93    63 1
  102    94    63 1
  103    95    62 1
  104    96    62 1
  105    97    62 1
  106    98    60 1
  107    99    60 1
  108   100    59 1
  109   101    59 1
  110   102    58 1
  111   103    58 1
  112   104    57 1
  113   105    57 1
  114   106    57 1
  115   107    55 1
  116   108    55 1
  117   109    54 1
  118   110    54 1
  119   111    53 1
  120   112    53 1
  121   113    19 1
  122   114    18 1
  123   115    17 1
  124   116     9 1
  125   117     2 1
  126   118    52 1
  127   119    52 1
  128   120    52 1
  129   121    51 1
  130   122    50 1
  131   123    50 1
  132   124    49 1
  133   125    49 1
  134   126    48 1
  135   127    48 1
  136   128    43 1
  137   129    43 1
  138   130    43 1
  139   131    39 1
  140   132    32 1
  141   133    31 1
  142   134    61 1
  143   135    56 1
  144   136    24 1
  145   137    24 1
  146   139   138 1
  147   140   139 1
  148   141   140 1
  149   142   140 1
  150   143   142 1
  151   144   138 1
  152   144   143 1
  153   145   144 1
  154   146   145 1
  155   147   146 1
  156   148   147 1
  157   149   148 1
  158   150   149 1
  159   151   150 1
  160   152   151 1
  161   153   152 1
  162   154   138 1
  163   155   138 1
  164   156   143 1
  165   157   147 1
  166   158   151 1
  167   160   159 1
  168   161   160 1
  169   162   161 1
  170   163   161 1
  171   164   163 1
  172   165   159 1
  173   165   164 1
  174   166   165 1
  175   167   166 1
  176   168   167 1
  177   169   168 1
  178   170   169 1
  179   171   170 1
  180   172   171 1
  181   173   172 1
  182   174   153 1
  183   174   173 1
  184   175   159 1
  185   176   159 1
  186   177   164 1
  187   178   168 1
  188   179   172 1
  189   180   179 1
  190   181   179 1
  191   182   179 1
  192   183   178 1
  193   184   178 1
  194   185   178 1
  195   186   177 1
  196   187   177 1
  197   188   177 1
  198   189   176 1
  199   190   176 1
  200   191   176 1
  201   192   175 1
  202   193   175 1
  203   194   175 1
  204   195   160 1
  205   196   160 1
  206   197   158 1
  207   198   158 1
  208   199   158 1
  209   200   157 1
  210   201   157 1
  211   202   157 1
  212   203   156 1
  213   204   156 1
  214   205   156 1
  215   206   155 1
  216   207   155 1
  217   208   155 1
  218   209   154 1
  219   210   154 1
  220   211   154 1
  221   212   141 1
  222   213   146 1
  223   214   145 1
  224   215   142 1
  225   216   142 1
  226   217   174 1
  227   218   173 1
  228   219   171 1
  229   220   170 1
  230   221   169 1
  231   222   140 1
  232   223   167 1
  233   224   166 1
  234   225   165 1
  235   226   163 1
  236   227   161 1
  237   228   139 1
  238   229   139 1
  239   230   153 1
  240   231   152 1
  241   232   150 1
  242   233   149 1
  243   234   148 1
  244   235   162 1
  245   65    153 1
  246   65    174 1
@<TRIPOS>SUBSTRUCTURE
      1 CLA               1 ****               0 ****  **** 
      2 LUT             138 ****               0 ****  **** 
