@<TRIPOS>MOLECULE
Cpptraj generated mol2 file.
  235   246     2     0     0
SMALL
USER_CHARGES


@<TRIPOS>ATOM
      1 CAA        79.6805   57.3374   34.6609 a2         1 CLA     -0.055900
      2 CAB        80.0706   61.3202   43.7718 c8         1 CLA     -0.148500
      3 CAC        72.9534   57.5598   43.4156 a2         1 CLA     -0.012600
      4 CAD        75.5813   54.8450   36.1051 ck         1 CLA      0.398800
      5 NA         78.7925   58.0959   38.0605 ns         1 CLA     -0.225500
      6 CBA        80.8783   57.0001   33.7888 a2         1 CLA     -0.135000
      7 CBB        81.2637   61.5889   44.3197 c0         1 CLA     -0.395200
      8 CBC        72.8895   56.0445   43.3171 a3         1 CLA     -0.037700
      9 CBD        77.0469   55.2695   35.8429 a1         1 CLA     -0.053900
     10 NB         78.7355   59.6264   40.6962 nm         1 CLA     -0.295700
     11 OBD        74.9220   54.0510   35.4396 o2         1 CLA     -0.494600
     12 CGA        81.1177   55.5366   33.3684 c4         1 CLA      0.827000
     13 CGD        78.1519   54.1591   35.7814 c4         1 CLA      0.655300
     14 ND         76.0361   57.1188   38.8380 nm         1 CLA     -0.291600
     15 CED        79.2974   52.5725   37.1830 a3         1 CLA      0.005400
     16 CHA        77.4044   56.4770   36.8082 cs         1 CLA     -0.123800
     17 CHB        80.5104   59.5284   38.9993 aa         1 CLA     -0.291900
     18 CHC        77.5046   59.7391   42.8227 aa         1 CLA     -0.090400
     19 CHD        74.0715   57.1478   40.4478 aa         1 CLA     -0.052000
     20 CMA        82.1974   57.6019   37.2804 a3         1 CLA     -0.230700
     21 CMB        82.0155   61.3452   41.0550 a3         1 CLA     -0.180800
     22 CMC        75.3042   59.4545   44.9307 a3         1 CLA     -0.134000
     23 CMD        72.7621   55.3038   38.1651 a3         1 CLA     -0.141100
     24 C1         82.0822   53.4911   34.2551 a2         1 CLA      0.023000
     25 C1A        78.5491   57.2982   36.9593 ac         1 CLA     -0.015100
     26 C1B        79.9686   60.0473   40.2162 cr         1 CLA      0.054700
     27 C1C        76.3307   59.0717   42.5177 cn         1 CLA     -0.005600
     28 C1D        74.7484   56.7460   39.2223 ap         1 CLA     -0.047300
     29 O1A        80.5415   54.9205   32.4633 o2         1 CLA     -0.610800
     30 O1D        78.9695   54.0421   34.8793 o2         1 CLA     -0.558200
     31 C2         83.1351   53.0296   35.2739 c8         1 CLA     -0.325100
     32 C2A        79.8626   57.1139   36.1806 a1         1 CLA      0.098600
     33 C2B        80.6833   60.7645   41.2372 cb         1 CLA      0.088500
     34 C2C        75.2443   58.8988   43.4810 cb         1 CLA      0.053700
     35 C2D        74.1888   55.8178   38.2122 cb         1 CLA      0.058900
     36 O2A        82.0001   54.9724   34.3151 o1         1 CLA     -0.437200
     37 O2D        78.1385   53.4780   36.9619 o1         1 CLA     -0.357600
     38 C3         84.3344   52.4886   34.9764 c5         1 CLA      0.031200
     39 C3A        80.8212   58.1758   36.8489 a1         1 CLA      0.166800
     40 C3B        79.8500   60.7744   42.3927 cb         1 CLA      0.035000
     41 C3C        74.2638   58.1392   42.8362 cb         1 CLA     -0.089900
     42 C3D        75.1849   55.6337   37.3081 cb         1 CLA     -0.035900
     43 C4         84.6805   51.0436   34.4499 a3         1 CLA     -0.053300
     44 C4A        80.0066   58.6385   38.0765 ac         1 CLA      0.001800
     45 C4B        78.6099   60.0039   42.0378 cn         1 CLA     -0.020900
     46 C4C        74.7216   57.8708   41.4830 cr         1 CLA     -0.044400
     47 C4D        76.2692   56.4721   37.6858 c6         1 CLA     -0.046000
     48 C5         85.4265   53.4889   35.1424 a2         1 CLA     -0.070400
     49 C6         86.3414   53.0864   36.3336 a2         1 CLA      0.043900
     50 C7         87.1533   54.2773   36.8728 a2         1 CLA     -0.150000
     51 C8         86.4637   55.1650   37.9190 a1         1 CLA      0.064200
     52 C9         85.2823   56.0268   37.4499 a3         1 CLA     -0.259300
     53 C10        87.5637   56.0967   38.3652 a2         1 CLA     -0.071900
     54 C11        87.3641   56.9482   39.6170 a2         1 CLA      0.014500
     55 C12        87.3989   56.1626   40.8858 a2         1 CLA     -0.112100
     56 C13        87.2205   56.9570   42.2926 a1         1 CLA      0.089200
     57 C14        88.4728   57.7434   42.5833 a3         1 CLA     -0.239100
     58 C15        86.8909   55.9506   43.3576 a2         1 CLA     -0.102200
     59 C16        86.7861   56.4523   44.7855 a2         1 CLA      0.023900
     60 C17        85.9004   57.6630   45.0307 a2         1 CLA     -0.105700
     61 C18        84.4023   57.4481   44.7807 a1         1 CLA      0.206800
     62 C19        83.7378   56.7306   45.9977 a3         1 CLA     -0.280100
     63 C20        83.5850   58.7384   44.5061 a3         1 CLA     -0.280100
     64 NC         75.9655   58.5258   41.2979 nx         1 CLA     -0.309200
     65 MG         77.2871   58.4442   39.6887 mg         1 CLA      0.895000
     66 HMD3       72.1381   55.9999   37.6744 dc         1 CLA      0.064300
     67 HMD2       72.8254   54.2744   37.6371 dc         1 CLA      0.064300
     68 HMD1       72.4004   55.1717   39.2027 dc         1 CLA      0.064300
     69 HMC3       76.1139   58.9910   45.4613 dc         1 CLA      0.052100
     70 HMC2       75.4034   60.5429   44.8782 dc         1 CLA      0.052100
     71 HMC1       74.3969   59.3361   45.4838 dc         1 CLA      0.052100
     72 HMB3       82.7050   60.5602   41.2861 dc         1 CLA      0.063600
     73 HMB2       82.1426   61.7345   39.9983 dc         1 CLA      0.063600
     74 HMB1       82.1596   62.1788   41.7383 dc         1 CLA      0.063600
     75 HMA3       82.8103   58.3738   37.7628 dc         1 CLA      0.058300
     76 HMA2       82.0976   56.7410   37.9837 dc         1 CLA      0.058300
     77 HMA1       82.7356   57.4420   36.3549 dc         1 CLA      0.058300
     78 HED3       80.2072   53.0849   37.1678 dc         1 CLA      0.079300
     79 HED2       79.2565   52.0529   38.1500 dc         1 CLA      0.079300
     80 HED1       79.2674   51.7824   36.4201 dc         1 CLA      0.079300
     81 HBC3       72.6794   55.7232   42.2869 dc         1 CLA      0.016300
     82 HBC2       73.8312   55.5445   43.5813 dc         1 CLA      0.016300
     83 HBC1       72.0935   55.5127   43.8140 dc         1 CLA      0.016300
     84 HBB2       81.3145   61.9922   45.3612 da         1 CLA      0.183000
     85 HBB1       82.1837   61.2421   43.9092 da         1 CLA      0.183000
     86 HBA2       80.8149   57.5873   32.9418 dc         1 CLA      0.029400
     87 HBA1       81.7767   57.2072   34.4014 dc         1 CLA      0.029400
     88 HAC2       72.9879   57.7148   44.5032 dc         1 CLA      0.029300
     89 HAC1       72.0903   58.0303   43.0271 dc         1 CLA      0.029300
     90 HAA2       78.7882   56.7097   34.3202 dc         1 CLA      0.028700
     91 HAA1       79.3957   58.3511   34.6197 dc         1 CLA      0.028700
     92 H203       83.7641   59.4160   45.3035 dc         1 CLA      0.065600
     93 H202       83.9082   59.1447   43.5440 dc         1 CLA      0.065600
     94 H201       82.5451   58.5573   44.2762 dc         1 CLA      0.065600
     95 H193       83.8885   57.3605   46.8869 dc         1 CLA      0.065600
     96 H192       82.7148   56.5363   45.6823 dc         1 CLA      0.065600
     97 H191       84.1533   55.7163   46.1775 dc         1 CLA      0.065600
     98 H172       86.1415   58.1394   46.0036 dc         1 CLA      0.027600
     99 H171       86.2102   58.3848   44.2428 dc         1 CLA      0.027600
    100 H162       86.4017   55.5798   45.2909 dc         1 CLA      0.002900
    101 H161       87.8189   56.6597   45.0179 dc         1 CLA      0.002900
    102 H152       85.9458   55.5116   43.0607 dc         1 CLA      0.029100
    103 H151       87.6053   55.1072   43.3472 dc         1 CLA      0.029100
    104 H143       88.4755   58.3947   41.7539 dc         1 CLA      0.063600
    105 H142       88.4040   58.3197   43.4873 dc         1 CLA      0.063600
    106 H141       89.3631   57.0823   42.7232 dc         1 CLA      0.063600
    107 H122       86.5599   55.5485   40.9325 dc         1 CLA      0.032500
    108 H121       88.3928   55.6568   40.9240 dc         1 CLA      0.032500
    109 H112       88.1090   57.8295   39.6878 dc         1 CLA      0.006600
    110 H111       86.3747   57.4300   39.4543 dc         1 CLA      0.006600
    111 H102       88.5177   55.5310   38.6175 dc         1 CLA      0.024100
    112 H101       87.7626   56.7549   37.5611 dc         1 CLA      0.024100
    113 HHD        73.0340   56.8380   40.6182 da         1 CLA      0.174300
    114 HHC        77.5398   60.2702   43.7978 da         1 CLA      0.136800
    115 HHB        81.4841   59.9717   38.8154 da         1 CLA      0.138300
    116 HBD        77.0463   55.6755   34.8562 dc         1 CLA      0.107700
    117 HAB        79.1800   61.3862   44.3595 da         1 CLA      0.155200
    118 H93        85.6164   56.5920   36.6094 dc         1 CLA      0.069500
    119 H92        84.5875   55.2966   37.1767 dc         1 CLA      0.069500
    120 H91        84.8818   56.6217   38.1598 dc         1 CLA      0.069500
    121 H8         86.1497   54.5455   38.6910 dc         1 CLA      0.029300
    122 H72        87.9941   53.8107   37.4779 dc         1 CLA      0.044400
    123 H71        87.4517   54.9093   36.0253 dc         1 CLA      0.044400
    124 H62        85.8921   52.4996   37.1177 dc         1 CLA      0.015600
    125 H61        87.0401   52.3657   35.9727 dc         1 CLA      0.015600
    126 H52        85.9995   53.5126   34.2018 dc         1 CLA      0.033200
    127 H51        85.0819   54.5426   35.2538 dc         1 CLA      0.033200
    128 H43        85.5470   50.7316   35.0889 dc         1 CLA      0.037000
    129 H42        83.8405   50.3599   34.5810 dc         1 CLA      0.037000
    130 H41        84.9580   51.1659   33.3788 dc         1 CLA      0.037000
    131 H3A        80.9882   59.0615   36.2372 dc         1 CLA      0.041100
    132 H2A        80.2566   56.0772   36.4017 dc         1 CLA      0.083100
    133 H2         82.8362   52.7927   36.2531 da         1 CLA      0.180900
    134 H18        84.3239   56.8699   43.9190 dc         1 CLA     -0.003900
    135 H13        86.3358   57.5698   42.0927 dc         1 CLA      0.019700
    136 H12        81.0926   53.0527   34.5634 dc         1 CLA      0.120400
    137 H11        82.2973   53.1737   33.2120 dc         1 CLA      0.120400
    138 C1         69.7113   60.7850   50.3477 Z1         2 LUT      0.509236
    139 C2         68.2815   60.8122   50.9061 Z2         2 LUT     -0.434695
    140 C3         67.6301   62.1359   51.3314 Z3         2 LUT      0.437453
    141 O3         67.9293   62.5543   52.6586 S1         2 LUT     -0.547129
    142 C4         68.1179   63.2866   50.4391 Z4         2 LUT     -0.468603
    143 C5         68.8024   62.8979   49.2569 Z5         2 LUT      0.279246
    144 C6         69.5893   61.7910   49.1856 Z6         2 LUT     -0.305473
    145 C7         69.8986   61.2619   47.8468 Z7         2 LUT      0.069402
    146 C8         70.8491   61.7858   47.0514 Z8         2 LUT     -0.191631
    147 C9         71.3243   61.3408   45.7558 Z9         2 LUT      0.196698
    148 C10        72.3325   62.0683   45.1688 Y1         2 LUT     -0.208611
    149 C11        73.1753   61.9237   43.9206 Y2         2 LUT      0.030784
    150 C12        74.3231   62.7170   43.6076 Y3         2 LUT     -0.220316
    151 C13        75.1460   62.6312   42.4540 Y4         2 LUT      0.215937
    152 C14        76.3423   63.2550   42.5571 Y5         2 LUT     -0.185793
    153 C15        77.6206   63.2038   41.8140 Y6         2 LUT     -0.057835
    154 C16        70.1927   59.4295   49.9800 Y7         2 LUT     -0.405615
    155 C17        70.5512   61.4186   51.5206 Y7         2 LUT     -0.405615
    156 C18        68.3724   63.7271   48.0947 Y9         2 LUT     -0.369639
    157 C19        70.8309   60.0743   45.0924 W1         2 LUT     -0.333362
    158 C20        74.7578   61.7874   41.2118 W2         2 LUT     -0.323439
    159 C21        88.8120   64.7916   35.4737 Z1         2 LUT      0.406104
    160 C22        89.4327   64.2493   34.2098 Z2         2 LUT     -0.404965
    161 C23        89.1505   65.0518   32.9456 Z3         2 LUT      0.391255
    162 O23        89.3431   63.9812   31.9904 S1         2 LUT     -0.528210
    163 C24        87.7714   65.7337   32.9427 W6         2 LUT     -0.258361
    164 C25        86.8445   65.8422   33.9498 Z5         2 LUT      0.133546
    165 C26        87.2981   65.2148   35.3416 W8         2 LUT     -0.147008
    166 C27        86.6710   65.9527   36.5010 Z7         2 LUT      0.023843
    167 C28        85.4329   65.7120   37.0558 Z8         2 LUT     -0.216987
    168 C29        84.9621   66.0436   38.3427 Z9         2 LUT      0.206524
    169 C30        83.8259   65.3926   38.7211 Y1         2 LUT     -0.215556
    170 C31        83.0945   65.4912   39.9948 Y2         2 LUT      0.025142
    171 C32        81.8933   64.8486   40.0945 Y3         2 LUT     -0.212209
    172 C33        80.9712   64.7590   41.2365 Y4         2 LUT      0.240937
    173 C34        79.8640   64.0507   41.1137 Y5         2 LUT     -0.218862
    174 C35        78.7560   63.8818   42.0415 Y6         2 LUT     -0.023547
    175 C36        89.6573   66.0726   35.8659 Y7         2 LUT     -0.393485
    176 C37        89.1411   63.7513   36.6009 Y7         2 LUT     -0.393485
    177 C38        85.4921   66.3963   33.8292 Y9         2 LUT     -0.387526
    178 C39        85.4428   67.1648   39.2158 W1         2 LUT     -0.322618
    179 C40        81.2562   65.4776   42.5205 W2         2 LUT     -0.358472
    180 H403       82.2700   65.8286   42.7734 R7         2 LUT      0.097720
    181 H402       80.7368   66.4500   42.5111 R7         2 LUT      0.097720
    182 H401       80.9318   64.8749   43.2604 R7         2 LUT      0.097720
    183 H393       85.9179   67.9713   38.6226 R4         2 LUT      0.082505
    184 H392       84.6235   67.6171   39.8433 R4         2 LUT      0.082505
    185 H391       86.2366   66.8142   39.9158 R4         2 LUT      0.082505
    186 H383       84.7757   65.7589   34.1832 R1         2 LUT      0.104030
    187 H382       85.5191   67.4259   34.2610 R1         2 LUT      0.104030
    188 H381       85.4227   66.5317   32.7079 R1         2 LUT      0.104030
    189 H373       90.1933   63.6358   36.8049 T4         2 LUT      0.089537
    190 H372       88.7228   63.9583   37.6337 T4         2 LUT      0.089537
    191 H371       88.8747   62.7276   36.4207 T4         2 LUT      0.089537
    192 H363       89.5826   66.8248   35.0427 T4         2 LUT      0.089537
    193 H362       89.4580   66.5450   36.8056 T4         2 LUT      0.089537
    194 H361       90.7073   65.8923   35.9450 T4         2 LUT      0.089537
    195 H222       90.5439   64.0050   34.3005 U2         2 LUT      0.127376
    196 H221       88.9230   63.3006   34.1034 U2         2 LUT      0.127376
    197 H203       75.4842   61.2365   40.8243 R7         2 LUT      0.087068
    198 H202       73.9885   61.0769   41.4288 R7         2 LUT      0.087068
    199 H201       74.3400   62.4184   40.4780 R7         2 LUT      0.087068
    200 H193       71.1653   59.1631   45.4601 R4         2 LUT      0.089716
    201 H192       69.7035   60.0312   45.2583 R4         2 LUT      0.089716
    202 H191       71.0911   60.1071   44.0267 R4         2 LUT      0.089716
    203 H183       67.8497   63.1345   47.3694 R1         2 LUT      0.094572
    204 H182       67.7529   64.5752   48.3502 R1         2 LUT      0.094572
    205 H181       69.2248   64.1489   47.5540 R1         2 LUT      0.094572
    206 H173       70.3324   62.4845   51.7087 T4         2 LUT      0.093752
    207 H172       70.6012   60.7964   52.3866 T4         2 LUT      0.093752
    208 H171       71.6478   61.6293   51.2730 T4         2 LUT      0.093752
    209 H163       71.1751   59.2799   49.4938 T4         2 LUT      0.093752
    210 H162       70.2588   58.6615   50.8443 T4         2 LUT      0.093752
    211 H161       69.4194   59.0664   49.3153 T4         2 LUT      0.093752
    212 HO3        67.7625   61.8002   53.2756 Q1         2 LUT      0.300121
    213 H8         71.4598   62.5105   47.5373 U7         2 LUT      0.080784
    214 H7         69.4317   60.2980   47.5220 U6         2 LUT      0.042190
    215 H42        67.1410   63.7647   50.2641 U5         2 LUT      0.145166
    216 H41        68.7842   63.9984   50.9613 U5         2 LUT      0.145166
    217 H35        78.7661   64.4832   42.9491 T3         2 LUT      0.077919
    218 H34        79.5785   63.6905   40.1453 T2         2 LUT      0.073626
    219 H32        81.5080   64.2939   39.2108 T1         2 LUT      0.092510
    220 H31        83.5083   66.0323   40.8850 U9         2 LUT      0.070048
    221 H30        83.2857   64.7235   38.1176 U8         2 LUT      0.085442
    222 H3         66.5916   62.0631   50.9351 U3         2 LUT     -0.031596
    223 H28        84.7457   65.1018   36.4499 U7         2 LUT      0.084728
    224 H27        87.3054   66.5751   37.1337 U6         2 LUT      0.087291
    225 H26        86.7693   64.2657   35.4080 Q6         2 LUT      0.075325
    226 H24        87.5610   66.1865   31.9536 Q5         2 LUT      0.094482
    227 H23        89.9699   65.7262   33.0019 U3         2 LUT     -0.024869
    228 H22        67.6728   60.3313   50.1674 U2         2 LUT      0.127376
    229 H21        68.3048   60.0831   51.7279 U2         2 LUT      0.127376
    230 H15        77.4418   62.7621   40.8679 T3         2 LUT      0.093200
    231 H14        76.4883   63.6467   43.5531 T2         2 LUT      0.068865
    232 H12        74.5185   63.4914   44.3317 T1         2 LUT      0.095507
    233 H11        73.1214   61.0108   43.3896 U9         2 LUT      0.068930
    234 H10        72.4726   63.0637   45.5269 U8         2 LUT      0.083911
    235 H1         89.6177   64.3409   31.1385 Q1         2 LUT      0.297311
@<TRIPOS>BOND
    1     6     1 1
    2     7     2 1
    3     8     3 1
    4     9     4 1
    5    11     4 1
    6    12     6 1
    7    13     9 1
    8    16     9 1
    9    25     5 1
   10    25    16 1
   11    26    10 1
   12    26    17 1
   13    27    18 1
   14    28    14 1
   15    28    19 1
   16    29    12 1
   17    30    13 1
   18    31    24 1
   19    32     1 1
   20    32    25 1
   21    33    21 1
   22    33    26 1
   23    34    22 1
   24    34    27 1
   25    35    23 1
   26    35    28 1
   27    36    12 1
   28    36    24 1
   29    37    13 1
   30    37    15 1
   31    38    31 1
   32    39    20 1
   33    39    32 1
   34    40     2 1
   35    40    33 1
   36    41     3 1
   37    41    34 1
   38    42     4 1
   39    42    35 1
   40    43    38 1
   41    44     5 1
   42    44    17 1
   43    44    39 1
   44    45    10 1
   45    45    18 1
   46    45    40 1
   47    46    19 1
   48    46    41 1
   49    47    14 1
   50    47    16 1
   51    47    42 1
   52    48    38 1
   53    49    48 1
   54    50    49 1
   55    51    50 1
   56    52    51 1
   57    53    51 1
   58    54    53 1
   59    55    54 1
   60    56    55 1
   61    57    56 1
   62    58    56 1
   63    59    58 1
   64    60    59 1
   65    61    60 1
   66    62    61 1
   67    63    61 1
   68    64    27 1
   69    64    46 1
   70    65     5 1
   71    65    10 1
   72    65    64 1
   73    65    14 1
   74    66    23 1
   75    67    23 1
   76    68    23 1
   77    69    22 1
   78    70    22 1
   79    71    22 1
   80    72    21 1
   81    73    21 1
   82    74    21 1
   83    75    20 1
   84    76    20 1
   85    77    20 1
   86    78    15 1
   87    79    15 1
   88    80    15 1
   89    81     8 1
   90    82     8 1
   91    83     8 1
   92    84     7 1
   93    85     7 1
   94    86     6 1
   95    87     6 1
   96    88     3 1
   97    89     3 1
   98    90     1 1
   99    91     1 1
  100    92    63 1
  101    93    63 1
  102    94    63 1
  103    95    62 1
  104    96    62 1
  105    97    62 1
  106    98    60 1
  107    99    60 1
  108   100    59 1
  109   101    59 1
  110   102    58 1
  111   103    58 1
  112   104    57 1
  113   105    57 1
  114   106    57 1
  115   107    55 1
  116   108    55 1
  117   109    54 1
  118   110    54 1
  119   111    53 1
  120   112    53 1
  121   113    19 1
  122   114    18 1
  123   115    17 1
  124   116     9 1
  125   117     2 1
  126   118    52 1
  127   119    52 1
  128   120    52 1
  129   121    51 1
  130   122    50 1
  131   123    50 1
  132   124    49 1
  133   125    49 1
  134   126    48 1
  135   127    48 1
  136   128    43 1
  137   129    43 1
  138   130    43 1
  139   131    39 1
  140   132    32 1
  141   133    31 1
  142   134    61 1
  143   135    56 1
  144   136    24 1
  145   137    24 1
  146   139   138 1
  147   140   139 1
  148   141   140 1
  149   142   140 1
  150   143   142 1
  151   144   138 1
  152   144   143 1
  153   145   144 1
  154   146   145 1
  155   147   146 1
  156   148   147 1
  157   149   148 1
  158   150   149 1
  159   151   150 1
  160   152   151 1
  161   153   152 1
  162   154   138 1
  163   155   138 1
  164   156   143 1
  165   157   147 1
  166   158   151 1
  167   160   159 1
  168   161   160 1
  169   162   161 1
  170   163   161 1
  171   164   163 1
  172   165   159 1
  173   165   164 1
  174   166   165 1
  175   167   166 1
  176   168   167 1
  177   169   168 1
  178   170   169 1
  179   171   170 1
  180   172   171 1
  181   173   172 1
  182   174   153 1
  183   174   173 1
  184   175   159 1
  185   176   159 1
  186   177   164 1
  187   178   168 1
  188   179   172 1
  189   180   179 1
  190   181   179 1
  191   182   179 1
  192   183   178 1
  193   184   178 1
  194   185   178 1
  195   186   177 1
  196   187   177 1
  197   188   177 1
  198   189   176 1
  199   190   176 1
  200   191   176 1
  201   192   175 1
  202   193   175 1
  203   194   175 1
  204   195   160 1
  205   196   160 1
  206   197   158 1
  207   198   158 1
  208   199   158 1
  209   200   157 1
  210   201   157 1
  211   202   157 1
  212   203   156 1
  213   204   156 1
  214   205   156 1
  215   206   155 1
  216   207   155 1
  217   208   155 1
  218   209   154 1
  219   210   154 1
  220   211   154 1
  221   212   141 1
  222   213   146 1
  223   214   145 1
  224   215   142 1
  225   216   142 1
  226   217   174 1
  227   218   173 1
  228   219   171 1
  229   220   170 1
  230   221   169 1
  231   222   140 1
  232   223   167 1
  233   224   166 1
  234   225   165 1
  235   226   163 1
  236   227   161 1
  237   228   139 1
  238   229   139 1
  239   230   153 1
  240   231   152 1
  241   232   150 1
  242   233   149 1
  243   234   148 1
  244   235   162 1
  245   65    153 1
  246   65    174 1
@<TRIPOS>SUBSTRUCTURE
      1 CLA               1 ****               0 ****  **** 
      2 LUT             138 ****               0 ****  **** 
