@<TRIPOS>MOLECULE
Cpptraj generated mol2 file.
  235   246     2     0     0
SMALL
USER_CHARGES


@<TRIPOS>ATOM
      1 CAA        79.6366   59.1348   33.7619 a2         1 CLA     -0.055900
      2 CAB        79.1142   63.0543   42.6984 c8         1 CLA     -0.148500
      3 CAC        72.4136   58.7981   42.0528 a2         1 CLA     -0.012600
      4 CAD        75.2586   56.8391   34.7473 ck         1 CLA      0.398800
      5 NA         78.4263   59.6499   37.1099 ns         1 CLA     -0.225500
      6 CBA        80.8671   58.9677   32.8733 a2         1 CLA     -0.135000
      7 CBB        80.2462   63.4002   43.3914 c0         1 CLA     -0.395200
      8 CBC        72.5074   57.2565   42.0502 a3         1 CLA     -0.037700
      9 CBD        76.6487   57.4810   34.3912 a1         1 CLA     -0.053900
     10 NB         78.2026   60.9851   39.6573 nm         1 CLA     -0.295700
     11 OBD        74.5997   56.0923   33.9916 o2         1 CLA     -0.494600
     12 CGA        81.3411   57.5285   32.5236 c4         1 CLA      0.827000
     13 CGD        77.5977   56.3478   34.1087 c4         1 CLA      0.655300
     14 ND         75.6088   58.8039   37.6145 nm         1 CLA     -0.291600
     15 CED        78.9704   54.6210   35.0460 a3         1 CLA      0.005400
     16 CHA        77.0732   58.3193   35.5855 cs         1 CLA     -0.123800
     17 CHB        80.1944   60.9492   38.1683 aa         1 CLA     -0.291900
     18 CHC        76.7609   61.4242   41.7150 aa         1 CLA     -0.090400
     19 CHD        73.6714   58.6127   39.1630 aa         1 CLA     -0.052000
     20 CMA        81.8751   58.7060   36.6698 a3         1 CLA     -0.230700
     21 CMB        81.4601   62.6644   40.3691 a3         1 CLA     -0.180800
     22 CMC        74.5091   60.6724   43.6701 a3         1 CLA     -0.134000
     23 CMD        72.5259   56.8626   36.7698 a3         1 CLA     -0.141100
     24 C1         82.5299   55.6584   33.5001 a2         1 CLA      0.023000
     25 C1A        78.3104   58.8934   35.9542 ac         1 CLA     -0.015100
     26 C1B        79.5130   61.2416   39.3337 cr         1 CLA      0.054700
     27 C1C        75.6486   60.6213   41.3833 cn         1 CLA     -0.005600
     28 C1D        74.3160   58.3832   37.9434 ap         1 CLA     -0.047300
     29 O1A        81.2379   56.9818   31.4456 o2         1 CLA     -0.610800
     30 O1D        78.1163   56.1784   33.0502 o2         1 CLA     -0.558200
     31 C2         83.2006   55.4283   34.9029 c8         1 CLA     -0.325100
     32 C2A        79.6612   58.7427   35.2571 a1         1 CLA      0.098600
     33 C2B        80.1000   62.0668   40.4216 cb         1 CLA      0.088500
     34 C2C        74.5476   60.3440   42.2911 cb         1 CLA      0.053700
     35 C2D        73.8749   57.4753   36.9626 cb         1 CLA      0.058900
     36 O2A        81.9940   57.0115   33.5819 o1         1 CLA     -0.437200
     37 O2D        77.8629   55.6424   35.2259 o1         1 CLA     -0.357600
     38 C3         84.1955   54.5338   35.1412 c5         1 CLA      0.031200
     39 C3A        80.6678   59.5214   36.1334 a1         1 CLA      0.166800
     40 C3B        79.1133   62.2358   41.4336 cb         1 CLA      0.035000
     41 C3C        73.6718   59.4948   41.5233 cb         1 CLA     -0.089900
     42 C3D        74.8840   57.4247   36.0202 cb         1 CLA     -0.035900
     43 C4         83.8363   53.2566   35.8580 a3         1 CLA     -0.053300
     44 C4A        79.6859   60.0883   37.2043 ac         1 CLA      0.001800
     45 C4B        77.9488   61.5235   40.9659 cn         1 CLA     -0.020900
     46 C4C        74.2601   59.3232   40.2232 cr         1 CLA     -0.044400
     47 C4D        75.9084   58.2373   36.4176 c6         1 CLA     -0.046000
     48 C5         85.6697   54.8599   34.8748 a2         1 CLA     -0.070400
     49 C6         86.1768   56.0830   35.7418 a2         1 CLA      0.043900
     50 C7         86.2745   55.8083   37.2334 a2         1 CLA     -0.150000
     51 C8         86.7450   56.9245   38.2179 a1         1 CLA      0.064200
     52 C9         87.9142   57.7440   37.6754 a3         1 CLA     -0.259300
     53 C10        87.1772   56.5052   39.6628 a2         1 CLA     -0.071900
     54 C11        86.8941   57.6060   40.7920 a2         1 CLA      0.014500
     55 C12        86.8383   56.9811   42.2342 a2         1 CLA     -0.112100
     56 C13        86.8029   58.0370   43.3489 a1         1 CLA      0.089200
     57 C14        88.2409   58.0739   43.9609 a3         1 CLA     -0.239100
     58 C15        85.6210   58.0188   44.4142 a2         1 CLA     -0.102200
     59 C16        84.2974   58.4593   43.8545 a2         1 CLA      0.023900
     60 C17        83.1856   58.2048   44.8814 a2         1 CLA     -0.105700
     61 C18        81.7155   58.1480   44.2471 a1         1 CLA      0.206800
     62 C19        80.6831   57.6214   45.2217 a3         1 CLA     -0.280100
     63 C20        81.2523   59.5787   43.6815 a3         1 CLA     -0.280100
     64 NC         75.4522   60.0120   40.1895 nx         1 CLA     -0.309200
     65 MG         76.8584   59.9831   38.6132 mg         1 CLA      0.895000
     66 HMD3       72.5802   56.0525   36.0542 dc         1 CLA      0.064300
     67 HMD2       72.1859   56.4496   37.7187 dc         1 CLA      0.064300
     68 HMD1       71.8769   57.6310   36.3995 dc         1 CLA      0.064300
     69 HMC3       73.4447   60.6095   43.9246 dc         1 CLA      0.052100
     70 HMC2       75.0924   59.9802   44.3156 dc         1 CLA      0.052100
     71 HMC1       74.7751   61.7089   43.8020 dc         1 CLA      0.052100
     72 HMB3       82.1986   61.9140   40.7690 dc         1 CLA      0.063600
     73 HMB2       81.6515   62.9753   39.3145 dc         1 CLA      0.063600
     74 HMB1       81.4117   63.5640   40.8647 dc         1 CLA      0.063600
     75 HMA3       81.5124   58.1286   37.5555 dc         1 CLA      0.058300
     76 HMA2       82.2594   58.0823   35.8685 dc         1 CLA      0.058300
     77 HMA1       82.5918   59.4511   37.0338 dc         1 CLA      0.058300
     78 HED3       79.2490   54.2743   35.9932 dc         1 CLA      0.079300
     79 HED2       78.4655   53.8274   34.4699 dc         1 CLA      0.079300
     80 HED1       79.7470   55.1102   34.4317 dc         1 CLA      0.079300
     81 HBC3       73.3783   56.9876   42.6568 dc         1 CLA      0.016300
     82 HBC2       71.6351   56.9562   42.4965 dc         1 CLA      0.016300
     83 HBC1       72.5684   56.9385   41.0192 dc         1 CLA      0.016300
     84 HBB2       80.2642   63.9987   44.2857 da         1 CLA      0.183000
     85 HBB1       81.2299   63.1518   42.9674 da         1 CLA      0.183000
     86 HBA2       80.7770   59.6231   32.0213 dc         1 CLA      0.029400
     87 HBA1       81.6036   59.4737   33.4588 dc         1 CLA      0.029400
     88 HAC2       72.2851   59.0982   43.0815 dc         1 CLA      0.029300
     89 HAC1       71.5772   59.1623   41.5480 dc         1 CLA      0.029300
     90 HAA2       78.8707   58.7347   33.2499 dc         1 CLA      0.028700
     91 HAA1       79.4177   60.2373   33.7849 dc         1 CLA      0.028700
     92 H203       82.0507   60.1070   43.1071 dc         1 CLA      0.065600
     93 H202       80.3146   59.4078   43.0758 dc         1 CLA      0.065600
     94 H201       81.0688   60.1827   44.5988 dc         1 CLA      0.065600
     95 H193       79.7225   57.4733   44.7522 dc         1 CLA      0.065600
     96 H192       80.9857   56.6634   45.6030 dc         1 CLA      0.065600
     97 H191       80.5974   58.3050   46.0535 dc         1 CLA      0.065600
     98 H172       83.2441   57.2192   45.3794 dc         1 CLA      0.027600
     99 H171       83.3083   59.0580   45.5736 dc         1 CLA      0.027600
    100 H162       84.2380   59.4234   43.4061 dc         1 CLA      0.002900
    101 H161       84.0575   57.8273   43.0161 dc         1 CLA      0.002900
    102 H152       85.6613   57.0036   44.7460 dc         1 CLA      0.029100
    103 H151       85.8832   58.7945   45.2262 dc         1 CLA      0.029100
    104 H143       88.1941   58.6417   44.8535 dc         1 CLA      0.063600
    105 H142       88.6812   57.0429   44.0537 dc         1 CLA      0.063600
    106 H141       88.8747   58.6369   43.2293 dc         1 CLA      0.063600
    107 H122       85.8874   56.4241   42.2899 dc         1 CLA      0.032500
    108 H121       87.6847   56.2724   42.3055 dc         1 CLA      0.032500
    109 H112       87.7660   58.2798   40.6753 dc         1 CLA      0.006600
    110 H111       85.9595   58.2064   40.6868 dc         1 CLA      0.006600
    111 H102       86.5656   55.6646   40.0830 dc         1 CLA      0.024100
    112 H101       88.1748   56.0555   39.5749 dc         1 CLA      0.024100
    113 HHD        72.7424   58.0865   39.3806 da         1 CLA      0.174300
    114 HHC        76.7088   61.8484   42.6930 da         1 CLA      0.136800
    115 HHB        81.1792   61.2559   38.1305 da         1 CLA      0.138300
    116 HBD        76.4529   58.0589   33.4733 dc         1 CLA      0.107700
    117 HAB        78.1129   63.3640   43.0839 da         1 CLA      0.155200
    118 H93        88.0527   58.5977   38.3958 dc         1 CLA      0.069500
    119 H92        88.7896   57.1299   37.7874 dc         1 CLA      0.069500
    120 H91        87.9250   58.1461   36.6486 dc         1 CLA      0.069500
    121 H8         85.9456   57.5935   38.2301 dc         1 CLA      0.029300
    122 H72        85.3339   55.5114   37.6457 dc         1 CLA      0.044400
    123 H71        86.8302   54.9009   37.3643 dc         1 CLA      0.044400
    124 H62        87.1954   56.0274   35.3810 dc         1 CLA      0.015600
    125 H61        85.8487   57.0875   35.4797 dc         1 CLA      0.015600
    126 H52        86.2677   53.9910   35.1907 dc         1 CLA      0.033200
    127 H51        85.7817   55.0269   33.7774 dc         1 CLA      0.033200
    128 H43        83.8671   53.5053   36.9665 dc         1 CLA      0.037000
    129 H42        82.8002   52.9143   35.6960 dc         1 CLA      0.037000
    130 H41        84.4653   52.4596   35.5914 dc         1 CLA      0.037000
    131 H3A        80.9668   60.3924   35.5059 dc         1 CLA      0.041100
    132 H2A        79.9902   57.7336   35.3302 dc         1 CLA      0.083100
    133 H2         83.1138   56.1811   35.7346 da         1 CLA      0.180900
    134 H18        81.5014   57.4381   43.4304 dc         1 CLA     -0.003900
    135 H13        86.7293   59.0269   42.9089 dc         1 CLA      0.019700
    136 H12        81.7368   54.8932   33.3148 dc         1 CLA      0.120400
    137 H11        83.2808   55.4594   32.7152 dc         1 CLA      0.120400
    138 C1         68.6776   62.4820   49.0668 Z1         2 LUT      0.509236
    139 C2         67.2163   62.3487   49.5596 Z2         2 LUT     -0.434695
    140 C3         66.5240   63.6543   49.8440 Z3         2 LUT      0.437453
    141 O3         66.5923   63.9668   51.2657 S1         2 LUT     -0.547129
    142 C4         66.9881   64.7885   49.0775 Z4         2 LUT     -0.468603
    143 C5         67.7520   64.4568   47.8411 Z5         2 LUT      0.279246
    144 C6         68.5991   63.4298   47.7926 Z6         2 LUT     -0.305473
    145 C7         69.2449   62.8344   46.5707 Z7         2 LUT      0.069402
    146 C8         70.2940   63.3006   45.8854 Z8         2 LUT     -0.191631
    147 C9         70.9640   62.9261   44.6249 Z9         2 LUT      0.196698
    148 C10        72.0465   63.6850   44.1542 Y1         2 LUT     -0.208611
    149 C11        72.7491   63.5889   42.9115 Y2         2 LUT      0.030784
    150 C12        73.8220   64.3706   42.6620 Y3         2 LUT     -0.220316
    151 C13        74.7083   64.3328   41.4858 Y4         2 LUT      0.215937
    152 C14        75.8562   65.0804   41.4828 Y5         2 LUT     -0.185793
    153 C15        76.9846   65.1074   40.5372 Y6         2 LUT     -0.057835
    154 C16        69.2037   61.0634   48.7782 Y7         2 LUT     -0.405615
    155 C17        69.6143   63.0937   50.0422 Y7         2 LUT     -0.405615
    156 C18        67.4390   65.2539   46.6011 Y9         2 LUT     -0.369639
    157 C19        70.3022   61.7745   43.8707 W1         2 LUT     -0.333362
    158 C20        74.2396   63.5518   40.2673 W2         2 LUT     -0.323439
    159 C21        88.7658   66.1392   34.8162 Z1         2 LUT      0.406104
    160 C22        89.3767   65.4717   33.4549 Z2         2 LUT     -0.404965
    161 C23        89.5063   66.3366   32.2665 Z3         2 LUT      0.391255
    162 O23        90.0965   65.5733   31.2156 S1         2 LUT     -0.528210
    163 C24        88.1366   67.0589   32.0508 W6         2 LUT     -0.258361
    164 C25        87.2084   67.2922   33.0262 Z5         2 LUT      0.133546
    165 C26        87.3246   66.6949   34.4663 W8         2 LUT     -0.147008
    166 C27        86.5617   67.4212   35.5303 Z7         2 LUT      0.023843
    167 C28        85.2910   67.2730   35.9649 Z8         2 LUT     -0.216987
    168 C29        84.6604   67.6796   37.1832 Z9         2 LUT      0.206524
    169 C30        83.5111   66.9720   37.5667 Y1         2 LUT     -0.215556
    170 C31        82.6479   67.0935   38.7444 Y2         2 LUT      0.025142
    171 C32        81.4922   66.4204   39.0426 Y3         2 LUT     -0.212209
    172 C33        80.6187   66.3225   40.2146 Y4         2 LUT      0.240937
    173 C34        79.3616   65.7271   40.0212 Y5         2 LUT     -0.218862
    174 C35        78.1688   65.6944   40.8602 Y6         2 LUT     -0.023547
    175 C36        89.7472   67.2453   35.3034 Y7         2 LUT     -0.393485
    176 C37        88.8514   64.9113   35.7380 Y7         2 LUT     -0.393485
    177 C38        85.9058   67.9743   32.6199 Y9         2 LUT     -0.387526
    178 C39        85.4406   68.5118   38.1405 W1         2 LUT     -0.322618
    179 C40        81.0513   67.1056   41.4400 W2         2 LUT     -0.358472
    180 H403       81.3827   68.0965   41.3582 R7         2 LUT      0.097720
    181 H402       80.1519   67.4330   41.9338 R7         2 LUT      0.097720
    182 H401       81.7256   66.6634   42.1429 R7         2 LUT      0.097720
    183 H393       86.3191   68.0321   38.5159 R4         2 LUT      0.082505
    184 H392       85.8657   69.3317   37.5609 R4         2 LUT      0.082505
    185 H391       84.9583   69.0006   39.0071 R4         2 LUT      0.082505
    186 H383       86.1152   68.4163   31.6875 R1         2 LUT      0.104030
    187 H382       85.0421   67.2847   32.5368 R1         2 LUT      0.104030
    188 H381       85.5908   68.7595   33.3098 R1         2 LUT      0.104030
    189 H373       89.7859   64.4200   35.7854 T4         2 LUT      0.089537
    190 H372       88.5602   65.1514   36.7578 T4         2 LUT      0.089537
    191 H371       88.1194   64.2305   35.3050 T4         2 LUT      0.089537
    192 H363       89.8800   68.0895   34.6573 T4         2 LUT      0.089537
    193 H362       89.4761   67.5542   36.3108 T4         2 LUT      0.089537
    194 H361       90.7176   66.9184   35.4329 T4         2 LUT      0.089537
    195 H222       90.3459   64.9798   33.6516 U2         2 LUT      0.127376
    196 H221       88.7197   64.7792   33.0484 U2         2 LUT      0.127376
    197 H203       73.9063   62.6048   40.4935 R7         2 LUT      0.087068
    198 H202       73.4865   64.0750   39.6887 R7         2 LUT      0.087068
    199 H201       75.0641   63.3419   39.6168 R7         2 LUT      0.087068
    200 H193       69.1996   61.9322   43.6688 R4         2 LUT      0.089716
    201 H192       70.8248   61.6601   42.9179 R4         2 LUT      0.089716
    202 H191       70.4521   60.7776   44.3799 R4         2 LUT      0.089716
    203 H183       67.9447   66.2097   46.7503 R1         2 LUT      0.094572
    204 H182       67.6554   64.7407   45.6873 R1         2 LUT      0.094572
    205 H181       66.3658   65.4807   46.6575 R1         2 LUT      0.094572
    206 H173       70.6359   62.9846   49.5684 T4         2 LUT      0.093752
    207 H172       69.2430   64.0751   50.2531 T4         2 LUT      0.093752
    208 H171       69.6088   62.7456   51.0154 T4         2 LUT      0.093752
    209 H163       68.6789   60.5287   48.0123 T4         2 LUT      0.093752
    210 H162       70.2524   61.1310   48.4695 T4         2 LUT      0.093752
    211 H161       69.2476   60.4865   49.7258 T4         2 LUT      0.093752
    212 HO3        66.0036   63.4356   51.8115 Q1         2 LUT      0.300121
    213 H8         70.7243   64.1561   46.3667 U7         2 LUT      0.080784
    214 H7         68.6961   61.9154   46.2449 U6         2 LUT      0.042190
    215 H42        66.2163   65.5073   48.8507 U5         2 LUT      0.145166
    216 H41        67.5408   65.4638   49.6693 U5         2 LUT      0.145166
    217 H35        78.3124   66.2137   41.8321 T3         2 LUT      0.077919
    218 H34        79.1670   65.2376   39.0288 T2         2 LUT      0.073626
    219 H32        81.1214   65.7886   38.2371 T1         2 LUT      0.092510
    220 H31        83.1358   67.7115   39.4539 U9         2 LUT      0.070048
    221 H30        83.1321   66.1386   36.8443 U8         2 LUT      0.085442
    222 H3         65.5270   63.4961   49.3962 U3         2 LUT     -0.031596
    223 H28        84.5892   66.6455   35.3054 U7         2 LUT      0.084728
    224 H27        87.2748   67.9919   36.1750 U6         2 LUT      0.087291
    225 H26        86.6735   65.8222   34.3581 Q6         2 LUT      0.075325
    226 H24        87.9224   67.3778   31.0384 Q5         2 LUT      0.094482
    227 H23        90.1846   67.1359   32.6501 U3         2 LUT     -0.024869
    228 H22        66.6241   62.0616   48.6692 U2         2 LUT      0.127376
    229 H21        67.0266   61.5456   50.3266 U2         2 LUT      0.127376
    230 H15        77.0155   64.5268   39.6421 T3         2 LUT      0.093200
    231 H14        76.0739   65.5954   42.3886 T2         2 LUT      0.068865
    232 H12        74.0373   65.1881   43.4281 T1         2 LUT      0.095507
    233 H11        72.5481   62.7719   42.2168 U9         2 LUT      0.068930
    234 H10        72.3751   64.5150   44.7376 U8         2 LUT      0.083911
    235 H1         89.8973   66.0052   30.4102 Q1         2 LUT      0.297311
@<TRIPOS>BOND
    1     6     1 1
    2     7     2 1
    3     8     3 1
    4     9     4 1
    5    11     4 1
    6    12     6 1
    7    13     9 1
    8    16     9 1
    9    25     5 1
   10    25    16 1
   11    26    10 1
   12    26    17 1
   13    27    18 1
   14    28    14 1
   15    28    19 1
   16    29    12 1
   17    30    13 1
   18    31    24 1
   19    32     1 1
   20    32    25 1
   21    33    21 1
   22    33    26 1
   23    34    22 1
   24    34    27 1
   25    35    23 1
   26    35    28 1
   27    36    12 1
   28    36    24 1
   29    37    13 1
   30    37    15 1
   31    38    31 1
   32    39    20 1
   33    39    32 1
   34    40     2 1
   35    40    33 1
   36    41     3 1
   37    41    34 1
   38    42     4 1
   39    42    35 1
   40    43    38 1
   41    44     5 1
   42    44    17 1
   43    44    39 1
   44    45    10 1
   45    45    18 1
   46    45    40 1
   47    46    19 1
   48    46    41 1
   49    47    14 1
   50    47    16 1
   51    47    42 1
   52    48    38 1
   53    49    48 1
   54    50    49 1
   55    51    50 1
   56    52    51 1
   57    53    51 1
   58    54    53 1
   59    55    54 1
   60    56    55 1
   61    57    56 1
   62    58    56 1
   63    59    58 1
   64    60    59 1
   65    61    60 1
   66    62    61 1
   67    63    61 1
   68    64    27 1
   69    64    46 1
   70    65     5 1
   71    65    10 1
   72    65    64 1
   73    65    14 1
   74    66    23 1
   75    67    23 1
   76    68    23 1
   77    69    22 1
   78    70    22 1
   79    71    22 1
   80    72    21 1
   81    73    21 1
   82    74    21 1
   83    75    20 1
   84    76    20 1
   85    77    20 1
   86    78    15 1
   87    79    15 1
   88    80    15 1
   89    81     8 1
   90    82     8 1
   91    83     8 1
   92    84     7 1
   93    85     7 1
   94    86     6 1
   95    87     6 1
   96    88     3 1
   97    89     3 1
   98    90     1 1
   99    91     1 1
  100    92    63 1
  101    93    63 1
  102    94    63 1
  103    95    62 1
  104    96    62 1
  105    97    62 1
  106    98    60 1
  107    99    60 1
  108   100    59 1
  109   101    59 1
  110   102    58 1
  111   103    58 1
  112   104    57 1
  113   105    57 1
  114   106    57 1
  115   107    55 1
  116   108    55 1
  117   109    54 1
  118   110    54 1
  119   111    53 1
  120   112    53 1
  121   113    19 1
  122   114    18 1
  123   115    17 1
  124   116     9 1
  125   117     2 1
  126   118    52 1
  127   119    52 1
  128   120    52 1
  129   121    51 1
  130   122    50 1
  131   123    50 1
  132   124    49 1
  133   125    49 1
  134   126    48 1
  135   127    48 1
  136   128    43 1
  137   129    43 1
  138   130    43 1
  139   131    39 1
  140   132    32 1
  141   133    31 1
  142   134    61 1
  143   135    56 1
  144   136    24 1
  145   137    24 1
  146   139   138 1
  147   140   139 1
  148   141   140 1
  149   142   140 1
  150   143   142 1
  151   144   138 1
  152   144   143 1
  153   145   144 1
  154   146   145 1
  155   147   146 1
  156   148   147 1
  157   149   148 1
  158   150   149 1
  159   151   150 1
  160   152   151 1
  161   153   152 1
  162   154   138 1
  163   155   138 1
  164   156   143 1
  165   157   147 1
  166   158   151 1
  167   160   159 1
  168   161   160 1
  169   162   161 1
  170   163   161 1
  171   164   163 1
  172   165   159 1
  173   165   164 1
  174   166   165 1
  175   167   166 1
  176   168   167 1
  177   169   168 1
  178   170   169 1
  179   171   170 1
  180   172   171 1
  181   173   172 1
  182   174   153 1
  183   174   173 1
  184   175   159 1
  185   176   159 1
  186   177   164 1
  187   178   168 1
  188   179   172 1
  189   180   179 1
  190   181   179 1
  191   182   179 1
  192   183   178 1
  193   184   178 1
  194   185   178 1
  195   186   177 1
  196   187   177 1
  197   188   177 1
  198   189   176 1
  199   190   176 1
  200   191   176 1
  201   192   175 1
  202   193   175 1
  203   194   175 1
  204   195   160 1
  205   196   160 1
  206   197   158 1
  207   198   158 1
  208   199   158 1
  209   200   157 1
  210   201   157 1
  211   202   157 1
  212   203   156 1
  213   204   156 1
  214   205   156 1
  215   206   155 1
  216   207   155 1
  217   208   155 1
  218   209   154 1
  219   210   154 1
  220   211   154 1
  221   212   141 1
  222   213   146 1
  223   214   145 1
  224   215   142 1
  225   216   142 1
  226   217   174 1
  227   218   173 1
  228   219   171 1
  229   220   170 1
  230   221   169 1
  231   222   140 1
  232   223   167 1
  233   224   166 1
  234   225   165 1
  235   226   163 1
  236   227   161 1
  237   228   139 1
  238   229   139 1
  239   230   153 1
  240   231   152 1
  241   232   150 1
  242   233   149 1
  243   234   148 1
  244   235   162 1
  245   65    153 1
  246   65    174 1
@<TRIPOS>SUBSTRUCTURE
      1 CLA               1 ****               0 ****  **** 
      2 LUT             138 ****               0 ****  **** 
