@<TRIPOS>MOLECULE
Cpptraj generated mol2 file.
  235   246     2     0     0
SMALL
USER_CHARGES


@<TRIPOS>ATOM
      1 CAA        78.0912   58.2278   35.0567 a2         1 CLA     -0.055900
      2 CAB        77.9707   62.9934   43.5652 c8         1 CLA     -0.148500
      3 CAC        71.1220   58.6171   43.6600 a2         1 CLA     -0.012600
      4 CAD        73.6897   55.9321   36.3441 ck         1 CLA      0.398800
      5 NA         76.8624   59.0172   38.3314 ns         1 CLA     -0.225500
      6 CBA        79.3064   57.5609   34.3037 a2         1 CLA     -0.135000
      7 CBB        76.9799   63.6001   44.3316 c0         1 CLA     -0.395200
      8 CBC        71.0714   57.0767   43.8414 a3         1 CLA     -0.037700
      9 CBD        75.2349   56.3524   36.0401 a1         1 CLA     -0.053900
     10 NB         76.6817   60.8672   40.7477 nm         1 CLA     -0.295700
     11 OBD        73.0695   55.2712   35.5231 o2         1 CLA     -0.494600
     12 CGA        79.6059   56.0869   34.2342 c4         1 CLA      0.827000
     13 CGD        76.1544   55.1764   36.0716 c4         1 CLA      0.655300
     14 ND         73.9893   58.2557   38.9509 nm         1 CLA     -0.291600
     15 CED        76.7276   53.1644   37.5299 a3         1 CLA      0.005400
     16 CHA        75.5030   57.4389   37.0529 cs         1 CLA     -0.123800
     17 CHB        78.5712   60.4778   39.2201 aa         1 CLA     -0.291900
     18 CHC        75.5132   61.0734   42.8774 aa         1 CLA     -0.090400
     19 CHD        72.2332   58.1273   40.6245 aa         1 CLA     -0.052000
     20 CMA        80.1383   58.0989   37.9403 a3         1 CLA     -0.230700
     21 CMB        79.9570   62.5885   41.0327 a3         1 CLA     -0.180800
     22 CMC        73.2274   60.7220   44.9616 a3         1 CLA     -0.134000
     23 CMD        70.8798   56.1558   38.3652 a3         1 CLA     -0.141100
     24 C1         80.5320   54.2549   35.3262 a2         1 CLA      0.023000
     25 C1A        76.6892   58.1897   37.2635 ac         1 CLA     -0.015100
     26 C1B        77.9861   61.1121   40.3309 cr         1 CLA      0.054700
     27 C1C        74.3116   60.4489   42.5744 cn         1 CLA     -0.005600
     28 C1D        72.7875   57.7583   39.3656 ap         1 CLA     -0.047300
     29 O1A        79.6430   55.4288   33.1795 o2         1 CLA     -0.610800
     30 O1D        77.0931   54.9899   35.3102 o2         1 CLA     -0.558200
     31 C2         80.9623   53.6800   36.6399 c8         1 CLA     -0.325100
     32 C2A        78.0436   58.0453   36.5212 a1         1 CLA      0.098600
     33 C2B        78.6056   62.0284   41.2252 cb         1 CLA      0.088500
     34 C2C        73.2183   60.1783   43.5546 cb         1 CLA      0.053700
     35 C2D        72.2723   56.8489   38.4066 cb         1 CLA      0.058900
     36 O2A        79.9804   55.5760   35.4832 o1         1 CLA     -0.437200
     37 O2D        75.9597   54.3896   37.2425 o1         1 CLA     -0.357600
     38 C3         82.1791   53.4738   37.1234 c5         1 CLA      0.031200
     39 C3A        79.0319   58.9370   37.2816 a1         1 CLA      0.166800
     40 C3B        77.7584   62.2637   42.3183 cb         1 CLA      0.035000
     41 C3C        72.3888   59.2489   42.9764 cb         1 CLA     -0.089900
     42 C3D        73.2941   56.6681   37.5042 cb         1 CLA     -0.035900
     43 C4         82.8684   52.1873   36.8056 a3         1 CLA     -0.053300
     44 C4A        78.1086   59.4912   38.3557 ac         1 CLA      0.001800
     45 C4B        76.6017   61.3648   42.0117 cn         1 CLA     -0.020900
     46 C4C        72.8419   59.0310   41.5967 cr         1 CLA     -0.044400
     47 C4D        74.3321   57.4894   37.8636 c6         1 CLA     -0.046000
     48 C5         82.8716   54.3525   38.2114 a2         1 CLA     -0.070400
     49 C6         83.4968   55.7119   37.8088 a2         1 CLA      0.043900
     50 C7         83.6950   56.6024   39.0889 a2         1 CLA     -0.150000
     51 C8         84.2067   58.0418   38.9469 a1         1 CLA      0.064200
     52 C9         85.6472   58.2686   38.2057 a3         1 CLA     -0.259300
     53 C10        84.2630   58.8751   40.2684 a2         1 CLA     -0.071900
     54 C11        83.1413   58.8641   41.3305 a2         1 CLA      0.014500
     55 C12        83.1914   59.9398   42.4737 a2         1 CLA     -0.112100
     56 C13        84.5417   59.9393   43.2337 a1         1 CLA      0.089200
     57 C14        84.7748   58.7107   44.1646 a3         1 CLA     -0.239100
     58 C15        84.7973   61.3711   44.0416 a2         1 CLA     -0.102200
     59 C16        83.7461   61.6786   45.1872 a2         1 CLA      0.023900
     60 C17        83.8519   63.1263   45.6818 a2         1 CLA     -0.105700
     61 C18        83.0859   63.5465   47.0083 a1         1 CLA      0.206800
     62 C19        83.5138   65.0154   47.4262 a3         1 CLA     -0.280100
     63 C20        81.5913   63.4057   46.7577 a3         1 CLA     -0.280100
     64 NC         73.9931   59.7880   41.3657 nx         1 CLA     -0.309200
     65 MG         75.3529   59.6441   39.7404 mg         1 CLA      0.895000
     66 HMD3       70.6305   55.7620   39.3116 dc         1 CLA      0.064300
     67 HMD2       70.0767   56.8768   38.2369 dc         1 CLA      0.064300
     68 HMD1       70.7776   55.3119   37.6227 dc         1 CLA      0.064300
     69 HMC3       73.6711   61.6920   44.9605 dc         1 CLA      0.052100
     70 HMC2       72.2259   60.7063   45.4448 dc         1 CLA      0.052100
     71 HMC1       73.8518   60.0985   45.5753 dc         1 CLA      0.052100
     72 HMB3       80.1680   63.2753   41.7651 dc         1 CLA      0.063600
     73 HMB2       80.6710   61.7158   41.1010 dc         1 CLA      0.063600
     74 HMB1       80.0531   63.1275   40.0397 dc         1 CLA      0.063600
     75 HMA3       79.7529   57.3719   38.6619 dc         1 CLA      0.058300
     76 HMA2       80.6803   57.6033   37.1513 dc         1 CLA      0.058300
     77 HMA1       80.7844   58.7611   38.5556 dc         1 CLA      0.058300
     78 HED3       76.5653   52.5136   36.7035 dc         1 CLA      0.079300
     79 HED2       77.7996   53.2995   37.6350 dc         1 CLA      0.079300
     80 HED1       76.5025   52.6082   38.4324 dc         1 CLA      0.079300
     81 HBC3       70.0701   56.9505   44.2678 dc         1 CLA      0.016300
     82 HBC2       71.0483   56.6200   42.8836 dc         1 CLA      0.016300
     83 HBC1       71.8440   56.8018   44.5357 dc         1 CLA      0.016300
     84 HBB2       77.1461   64.2000   45.2315 da         1 CLA      0.183000
     85 HBB1       75.9409   63.6017   43.9607 da         1 CLA      0.183000
     86 HBA2       79.0495   57.8874   33.3137 dc         1 CLA      0.029400
     87 HBA1       80.1913   58.0626   34.5586 dc         1 CLA      0.029400
     88 HAC2       71.1714   58.8291   44.6753 dc         1 CLA      0.029300
     89 HAC1       70.2076   59.0373   43.2662 dc         1 CLA      0.029300
     90 HAA2       77.2408   57.7086   34.5879 dc         1 CLA      0.028700
     91 HAA1       78.0654   59.3185   34.8318 dc         1 CLA      0.028700
     92 H203       81.2419   64.0724   45.9339 dc         1 CLA      0.065600
     93 H202       81.2872   62.4089   46.6597 dc         1 CLA      0.065600
     94 H201       81.1275   63.8640   47.7570 dc         1 CLA      0.065600
     95 H193       83.3277   65.7864   46.6093 dc         1 CLA      0.065600
     96 H192       83.0746   65.3794   48.3152 dc         1 CLA      0.065600
     97 H191       84.6430   65.0413   47.5034 dc         1 CLA      0.065600
     98 H172       84.9322   63.1594   45.8683 dc         1 CLA      0.027600
     99 H171       83.6271   63.7247   44.8065 dc         1 CLA      0.027600
    100 H162       82.7429   61.5366   44.7623 dc         1 CLA      0.002900
    101 H161       83.8633   60.9579   46.0304 dc         1 CLA      0.002900
    102 H152       85.8438   61.4602   44.4049 dc         1 CLA      0.029100
    103 H151       84.7850   62.1037   43.2412 dc         1 CLA      0.029100
    104 H143       85.8268   58.7564   44.3864 dc         1 CLA      0.063600
    105 H142       84.2085   58.7221   45.1594 dc         1 CLA      0.063600
    106 H141       84.4526   57.7436   43.6778 dc         1 CLA      0.063600
    107 H122       83.1701   60.9743   42.0153 dc         1 CLA      0.032500
    108 H121       82.3084   59.7222   43.1020 dc         1 CLA      0.032500
    109 H112       82.2856   59.1299   40.8232 dc         1 CLA      0.006600
    110 H111       82.8955   57.8661   41.6579 dc         1 CLA      0.006600
    111 H102       85.2060   58.6189   40.8347 dc         1 CLA      0.024100
    112 H101       84.4044   59.9086   39.9055 dc         1 CLA      0.024100
    113 HHD        71.3329   57.6005   40.9251 da         1 CLA      0.174300
    114 HHC        75.6473   61.3989   43.9722 da         1 CLA      0.136800
    115 HHB        79.6069   60.8022   39.1633 da         1 CLA      0.138300
    116 HBD        75.2307   56.7939   35.0498 dc         1 CLA      0.107700
    117 HAB        78.9970   63.1945   43.8298 da         1 CLA      0.155200
    118 H93        86.3259   57.5188   38.4819 dc         1 CLA      0.069500
    119 H92        85.4733   58.1758   37.0580 dc         1 CLA      0.069500
    120 H91        86.0890   59.2364   38.5283 dc         1 CLA      0.069500
    121 H8         83.6142   58.6400   38.2803 dc         1 CLA      0.029300
    122 H72        82.6700   56.7980   39.4873 dc         1 CLA      0.044400
    123 H71        84.2384   56.1514   39.8528 dc         1 CLA      0.044400
    124 H62        84.4529   55.7020   37.2647 dc         1 CLA      0.015600
    125 H61        82.7343   56.0446   37.1175 dc         1 CLA      0.015600
    126 H52        82.2156   54.5217   39.0442 dc         1 CLA      0.033200
    127 H51        83.6896   53.7369   38.6528 dc         1 CLA      0.033200
    128 H43        82.2903   51.6959   36.0404 dc         1 CLA      0.037000
    129 H42        83.9061   52.4069   36.5662 dc         1 CLA      0.037000
    130 H41        82.8890   51.5396   37.6925 dc         1 CLA      0.037000
    131 H3A        79.4424   59.6475   36.6506 dc         1 CLA      0.041100
    132 H2A        78.2550   56.9298   36.6591 dc         1 CLA      0.083100
    133 H2         80.2328   53.1378   37.1889 da         1 CLA      0.180900
    134 H18        83.3305   62.8415   47.7737 dc         1 CLA     -0.003900
    135 H13        85.4567   59.8504   42.5770 dc         1 CLA      0.019700
    136 H12        79.8128   53.6395   34.8758 dc         1 CLA      0.120400
    137 H11        81.3840   54.2217   34.6959 dc         1 CLA      0.120400
    138 C1         67.0614   61.7966   50.7086 Z1         2 LUT      0.509236
    139 C2         66.9050   62.9162   51.7517 Z2         2 LUT     -0.434695
    140 C3         65.5664   63.6094   51.7837 Z3         2 LUT      0.437453
    141 O3         65.7701   64.9416   52.2930 S1         2 LUT     -0.547129
    142 C4         64.9697   63.7849   50.4016 Z4         2 LUT     -0.468603
    143 C5         65.7756   63.3522   49.2114 Z5         2 LUT      0.279246
    144 C6         66.7272   62.3810   49.3222 Z6         2 LUT     -0.305473
    145 C7         67.7075   62.0157   48.1867 Z7         2 LUT      0.069402
    146 C8         68.2710   62.8103   47.2433 Z8         2 LUT     -0.191631
    147 C9         68.9205   62.3758   46.0299 Z9         2 LUT      0.196698
    148 C10        69.7667   63.2268   45.4658 Y1         2 LUT     -0.208611
    149 C11        70.5227   63.1617   44.1985 Y2         2 LUT      0.030784
    150 C12        71.6562   63.8397   43.8714 Y3         2 LUT     -0.220316
    151 C13        72.4574   63.6741   42.7299 Y4         2 LUT      0.215937
    152 C14        73.6768   64.3379   42.7887 Y5         2 LUT     -0.185793
    153 C15        74.6536   64.4166   41.7380 Y6         2 LUT     -0.057835
    154 C16        65.9657   60.6909   51.0209 Y7         2 LUT     -0.405615
    155 C17        68.4907   61.1750   50.9507 Y7         2 LUT     -0.405615
    156 C18        65.5851   64.1467   47.9826 Y9         2 LUT     -0.369639
    157 C19        68.6818   61.0068   45.4380 W1         2 LUT     -0.333362
    158 C20        71.8505   63.0409   41.4483 W2         2 LUT     -0.323439
    159 C21        86.7306   65.2419   35.9202 Z1         2 LUT      0.406104
    160 C22        87.3783   64.6131   34.6796 Z2         2 LUT     -0.404965
    161 C23        87.5788   65.5066   33.4528 Z3         2 LUT      0.391255
    162 O23        88.3001   64.8868   32.4077 S1         2 LUT     -0.528210
    163 C24        86.3415   66.3793   33.2741 W6         2 LUT     -0.258361
    164 C25        85.2688   66.5087   34.0985 Z5         2 LUT      0.133546
    165 C26        85.3182   65.7536   35.4507 W8         2 LUT     -0.147008
    166 C27        84.3833   66.2852   36.5480 Z7         2 LUT      0.023843
    167 C28        83.1401   65.9106   36.8755 Z8         2 LUT     -0.216987
    168 C29        82.2918   66.3445   37.9662 Z9         2 LUT      0.206524
    169 C30        81.0718   65.7111   38.1999 Y1         2 LUT     -0.215556
    170 C31        80.2208   66.1061   39.2648 Y2         2 LUT      0.025142
    171 C32        78.9603   65.6339   39.5500 Y3         2 LUT     -0.212209
    172 C33        78.1196   65.8925   40.7468 Y4         2 LUT      0.240937
    173 C34        76.8544   65.1638   40.8225 Y5         2 LUT     -0.218862
    174 C35        75.7650   65.1726   41.8069 Y6         2 LUT     -0.023547
    175 C36        87.5085   66.3898   36.5175 Y7         2 LUT     -0.393485
    176 C37        86.5786   64.1414   37.0262 Y7         2 LUT     -0.393485
    177 C38        83.9791   67.2858   33.7684 Y9         2 LUT     -0.387526
    178 C39        82.8380   67.3689   38.9021 W1         2 LUT     -0.322618
    179 C40        78.3955   67.0381   41.7338 W2         2 LUT     -0.358472
    180 H403       79.4521   67.1940   41.8774 R7         2 LUT      0.097720
    181 H402       77.9678   67.9935   41.3040 R7         2 LUT      0.097720
    182 H401       77.9130   66.9346   42.6513 R7         2 LUT      0.097720
    183 H393       83.0025   67.0117   39.8728 R4         2 LUT      0.082505
    184 H392       83.7839   67.8598   38.6716 R4         2 LUT      0.082505
    185 H391       82.0280   68.1566   39.1191 R4         2 LUT      0.082505
    186 H383       83.9525   67.7554   32.7725 R1         2 LUT      0.104030
    187 H382       83.0567   66.6809   33.8348 R1         2 LUT      0.104030
    188 H381       83.8105   68.1208   34.5449 R1         2 LUT      0.104030
    189 H373       86.1076   64.5915   37.8647 T4         2 LUT      0.089537
    190 H372       85.8195   63.3885   36.7118 T4         2 LUT      0.089537
    191 H371       87.5066   63.6667   37.3653 T4         2 LUT      0.089537
    192 H363       87.6995   67.2280   35.9004 T4         2 LUT      0.089537
    193 H362       86.9793   66.8886   37.3629 T4         2 LUT      0.089537
    194 H361       88.5196   66.0841   36.8948 T4         2 LUT      0.089537
    195 H222       88.3093   64.1151   34.9069 U2         2 LUT      0.127376
    196 H221       86.7769   63.7573   34.2851 U2         2 LUT      0.127376
    197 H203       70.9046   63.4893   41.2756 R7         2 LUT      0.087068
    198 H202       72.4061   63.2159   40.5533 R7         2 LUT      0.087068
    199 H201       71.8258   61.9657   41.5646 R7         2 LUT      0.087068
    200 H193       68.8012   60.9515   44.3395 R4         2 LUT      0.089716
    201 H192       69.4599   60.3255   45.7973 R4         2 LUT      0.089716
    202 H191       67.6980   60.5871   45.7045 R4         2 LUT      0.089716
    203 H183       64.5913   64.6406   48.0757 R1         2 LUT      0.094572
    204 H182       66.3183   65.0000   47.9541 R1         2 LUT      0.094572
    205 H181       65.7697   63.6051   47.0674 R1         2 LUT      0.094572
    206 H173       68.6150   60.1864   50.5304 T4         2 LUT      0.093752
    207 H172       69.2568   61.8220   50.5617 T4         2 LUT      0.093752
    208 H171       68.7379   61.1396   51.9952 T4         2 LUT      0.093752
    209 H163       66.0542   59.7588   50.4415 T4         2 LUT      0.093752
    210 H162       66.0708   60.4493   52.0924 T4         2 LUT      0.093752
    211 H161       64.9233   61.0372   50.8839 T4         2 LUT      0.093752
    212 HO3        65.5505   65.0139   53.1937 Q1         2 LUT      0.300121
    213 H8         68.1591   63.8951   47.2600 U7         2 LUT      0.080784
    214 H7         67.8842   60.8936   48.1531 U6         2 LUT      0.042190
    215 H42        63.9576   63.2786   50.4892 U5         2 LUT      0.145166
    216 H41        64.6254   64.8695   50.3675 U5         2 LUT      0.145166
    217 H35        75.8820   65.7250   42.7215 T3         2 LUT      0.077919
    218 H34        76.5881   64.5039   39.9484 T2         2 LUT      0.073626
    219 H32        78.6325   64.9624   38.7268 T1         2 LUT      0.092510
    220 H31        80.6173   66.7902   39.9944 U9         2 LUT      0.070048
    221 H30        80.7409   64.9929   37.4495 U8         2 LUT      0.085442
    222 H3         64.9105   63.1171   52.4377 U3         2 LUT     -0.031596
    223 H28        82.7917   65.1760   36.1563 U7         2 LUT      0.084728
    224 H27        84.7292   67.0549   37.1462 U6         2 LUT      0.087291
    225 H26        84.8677   64.7482   35.0597 Q6         2 LUT      0.075325
    226 H24        86.4958   66.9162   32.3342 Q5         2 LUT      0.094482
    227 H23        88.2550   66.2862   33.8050 U3         2 LUT     -0.024869
    228 H22        66.9787   62.3799   52.6353 U2         2 LUT      0.127376
    229 H21        67.6972   63.7057   51.7184 U2         2 LUT      0.127376
    230 H15        74.5091   63.9308   40.7520 T3         2 LUT      0.093200
    231 H14        73.7300   65.0145   43.7078 T2         2 LUT      0.068865
    232 H12        72.0636   64.4916   44.6160 T1         2 LUT      0.095507
    233 H11        70.2811   62.4681   43.4667 U9         2 LUT      0.068930
    234 H10        69.9503   64.1631   45.9350 U8         2 LUT      0.083911
    235 H1         87.6545   64.6429   31.7008 Q1         2 LUT      0.297311
@<TRIPOS>BOND
    1     6     1 1
    2     7     2 1
    3     8     3 1
    4     9     4 1
    5    11     4 1
    6    12     6 1
    7    13     9 1
    8    16     9 1
    9    25     5 1
   10    25    16 1
   11    26    10 1
   12    26    17 1
   13    27    18 1
   14    28    14 1
   15    28    19 1
   16    29    12 1
   17    30    13 1
   18    31    24 1
   19    32     1 1
   20    32    25 1
   21    33    21 1
   22    33    26 1
   23    34    22 1
   24    34    27 1
   25    35    23 1
   26    35    28 1
   27    36    12 1
   28    36    24 1
   29    37    13 1
   30    37    15 1
   31    38    31 1
   32    39    20 1
   33    39    32 1
   34    40     2 1
   35    40    33 1
   36    41     3 1
   37    41    34 1
   38    42     4 1
   39    42    35 1
   40    43    38 1
   41    44     5 1
   42    44    17 1
   43    44    39 1
   44    45    10 1
   45    45    18 1
   46    45    40 1
   47    46    19 1
   48    46    41 1
   49    47    14 1
   50    47    16 1
   51    47    42 1
   52    48    38 1
   53    49    48 1
   54    50    49 1
   55    51    50 1
   56    52    51 1
   57    53    51 1
   58    54    53 1
   59    55    54 1
   60    56    55 1
   61    57    56 1
   62    58    56 1
   63    59    58 1
   64    60    59 1
   65    61    60 1
   66    62    61 1
   67    63    61 1
   68    64    27 1
   69    64    46 1
   70    65     5 1
   71    65    10 1
   72    65    64 1
   73    65    14 1
   74    66    23 1
   75    67    23 1
   76    68    23 1
   77    69    22 1
   78    70    22 1
   79    71    22 1
   80    72    21 1
   81    73    21 1
   82    74    21 1
   83    75    20 1
   84    76    20 1
   85    77    20 1
   86    78    15 1
   87    79    15 1
   88    80    15 1
   89    81     8 1
   90    82     8 1
   91    83     8 1
   92    84     7 1
   93    85     7 1
   94    86     6 1
   95    87     6 1
   96    88     3 1
   97    89     3 1
   98    90     1 1
   99    91     1 1
  100    92    63 1
  101    93    63 1
  102    94    63 1
  103    95    62 1
  104    96    62 1
  105    97    62 1
  106    98    60 1
  107    99    60 1
  108   100    59 1
  109   101    59 1
  110   102    58 1
  111   103    58 1
  112   104    57 1
  113   105    57 1
  114   106    57 1
  115   107    55 1
  116   108    55 1
  117   109    54 1
  118   110    54 1
  119   111    53 1
  120   112    53 1
  121   113    19 1
  122   114    18 1
  123   115    17 1
  124   116     9 1
  125   117     2 1
  126   118    52 1
  127   119    52 1
  128   120    52 1
  129   121    51 1
  130   122    50 1
  131   123    50 1
  132   124    49 1
  133   125    49 1
  134   126    48 1
  135   127    48 1
  136   128    43 1
  137   129    43 1
  138   130    43 1
  139   131    39 1
  140   132    32 1
  141   133    31 1
  142   134    61 1
  143   135    56 1
  144   136    24 1
  145   137    24 1
  146   139   138 1
  147   140   139 1
  148   141   140 1
  149   142   140 1
  150   143   142 1
  151   144   138 1
  152   144   143 1
  153   145   144 1
  154   146   145 1
  155   147   146 1
  156   148   147 1
  157   149   148 1
  158   150   149 1
  159   151   150 1
  160   152   151 1
  161   153   152 1
  162   154   138 1
  163   155   138 1
  164   156   143 1
  165   157   147 1
  166   158   151 1
  167   160   159 1
  168   161   160 1
  169   162   161 1
  170   163   161 1
  171   164   163 1
  172   165   159 1
  173   165   164 1
  174   166   165 1
  175   167   166 1
  176   168   167 1
  177   169   168 1
  178   170   169 1
  179   171   170 1
  180   172   171 1
  181   173   172 1
  182   174   153 1
  183   174   173 1
  184   175   159 1
  185   176   159 1
  186   177   164 1
  187   178   168 1
  188   179   172 1
  189   180   179 1
  190   181   179 1
  191   182   179 1
  192   183   178 1
  193   184   178 1
  194   185   178 1
  195   186   177 1
  196   187   177 1
  197   188   177 1
  198   189   176 1
  199   190   176 1
  200   191   176 1
  201   192   175 1
  202   193   175 1
  203   194   175 1
  204   195   160 1
  205   196   160 1
  206   197   158 1
  207   198   158 1
  208   199   158 1
  209   200   157 1
  210   201   157 1
  211   202   157 1
  212   203   156 1
  213   204   156 1
  214   205   156 1
  215   206   155 1
  216   207   155 1
  217   208   155 1
  218   209   154 1
  219   210   154 1
  220   211   154 1
  221   212   141 1
  222   213   146 1
  223   214   145 1
  224   215   142 1
  225   216   142 1
  226   217   174 1
  227   218   173 1
  228   219   171 1
  229   220   170 1
  230   221   169 1
  231   222   140 1
  232   223   167 1
  233   224   166 1
  234   225   165 1
  235   226   163 1
  236   227   161 1
  237   228   139 1
  238   229   139 1
  239   230   153 1
  240   231   152 1
  241   232   150 1
  242   233   149 1
  243   234   148 1
  244   235   162 1
  245   65    153 1
  246   65    174 1
@<TRIPOS>SUBSTRUCTURE
      1 CLA               1 ****               0 ****  **** 
      2 LUT             138 ****               0 ****  **** 
