@<TRIPOS>MOLECULE
Cpptraj generated mol2 file.
  235   246     2     0     0
SMALL
USER_CHARGES


@<TRIPOS>ATOM
      1 CAA        80.1576   58.4021   34.0208 a2         1 CLA     -0.055900
      2 CAB        80.0040   61.7852   43.0237 c8         1 CLA     -0.148500
      3 CAC        73.0810   57.8319   42.4777 a2         1 CLA     -0.012600
      4 CAD        75.7798   55.8826   34.9683 ck         1 CLA      0.398800
      5 NA         78.9347   58.4898   37.4052 ns         1 CLA     -0.225500
      6 CBA        81.3970   58.1584   33.1331 a2         1 CLA     -0.135000
      7 CBB        81.2345   61.9964   43.6396 c0         1 CLA     -0.395200
      8 CBC        73.2222   56.3768   42.7063 a3         1 CLA     -0.037700
      9 CBD        77.2767   56.3585   34.6444 a1         1 CLA     -0.053900
     10 NB         78.8468   59.9603   40.0196 nm         1 CLA     -0.295700
     11 OBD        75.1215   55.1570   34.1990 o2         1 CLA     -0.494600
     12 CGA        81.7111   56.6772   32.8294 c4         1 CLA      0.827000
     13 CGD        78.1817   55.1724   34.4860 c4         1 CLA      0.655300
     14 ND         76.0915   57.8450   37.8306 nm         1 CLA     -0.291600
     15 CED        78.5457   52.8850   35.1468 a3         1 CLA      0.005400
     16 CHA        77.6045   57.1891   35.8853 cs         1 CLA     -0.123800
     17 CHB        80.7600   59.5791   38.6092 aa         1 CLA     -0.291900
     18 CHC        77.5121   60.2065   41.9942 aa         1 CLA     -0.090400
     19 CHD        74.2177   57.6122   39.4537 aa         1 CLA     -0.052000
     20 CMA        82.2267   57.3955   37.0537 a3         1 CLA     -0.230700
     21 CMB        82.2609   61.3704   40.4495 a3         1 CLA     -0.180800
     22 CMC        75.1524   59.6520   44.1719 a3         1 CLA     -0.134000
     23 CMD        73.0279   55.8755   37.1122 a3         1 CLA     -0.141100
     24 C1         82.4314   54.5705   33.5880 a2         1 CLA      0.023000
     25 C1A        78.8127   57.8139   36.2329 ac         1 CLA     -0.015100
     26 C1B        80.1704   60.0898   39.7332 cr         1 CLA      0.054700
     27 C1C        76.2928   59.5774   41.7483 cn         1 CLA     -0.005600
     28 C1D        74.8708   57.3513   38.1606 ap         1 CLA     -0.047300
     29 O1A        81.2904   56.1511   31.8073 o2         1 CLA     -0.610800
     30 O1D        78.9386   55.1120   33.5115 o2         1 CLA     -0.558200
     31 C2         83.1039   53.9573   34.8458 c8         1 CLA     -0.325100
     32 C2A        80.1498   57.6755   35.4295 a1         1 CLA      0.098600
     33 C2B        80.8599   60.8917   40.6962 cb         1 CLA      0.088500
     34 C2C        75.2263   59.2532   42.7044 cb         1 CLA      0.053700
     35 C2D        74.3086   56.5706   37.0424 cb         1 CLA      0.058900
     36 O2A        82.3871   55.9973   33.8324 o1         1 CLA     -0.437200
     37 O2D        78.0004   54.1723   35.4700 o1         1 CLA     -0.357600
     38 C3         84.2393   53.3569   34.9161 c5         1 CLA      0.031200
     39 C3A        81.0998   58.3403   36.4734 a1         1 CLA      0.166800
     40 C3B        79.9125   61.0476   41.7219 cb         1 CLA      0.035000
     41 C3C        74.3570   58.4513   41.9562 cb         1 CLA     -0.089900
     42 C3D        75.3324   56.5095   36.1959 cb         1 CLA     -0.035900
     43 C4         84.3244   51.9372   34.5704 a3         1 CLA     -0.053300
     44 C4A        80.2280   58.7408   37.6107 ac         1 CLA      0.001800
     45 C4B        78.6642   60.4629   41.2718 cn         1 CLA     -0.020900
     46 C4C        74.8394   58.3796   40.5653 cr         1 CLA     -0.044400
     47 C4D        76.4524   57.2367   36.6838 c6         1 CLA     -0.046000
     48 C5         85.5765   54.0864   35.2915 a2         1 CLA     -0.070400
     49 C6         85.5174   54.9493   36.5924 a2         1 CLA      0.043900
     50 C7         86.9736   55.2970   37.0554 a2         1 CLA     -0.150000
     51 C8         87.2297   56.0749   38.4151 a1         1 CLA      0.064200
     52 C9         86.4996   57.4095   38.4835 a3         1 CLA     -0.259300
     53 C10        88.7745   56.1117   38.6886 a2         1 CLA     -0.071900
     54 C11        89.1948   56.7286   40.0308 a2         1 CLA      0.014500
     55 C12        89.3328   55.6368   41.0910 a2         1 CLA     -0.112100
     56 C13        90.0694   56.0734   42.4243 a1         1 CLA      0.089200
     57 C14        90.0776   54.8977   43.4413 a3         1 CLA     -0.239100
     58 C15        89.2713   57.2570   43.0493 a2         1 CLA     -0.102200
     59 C16        87.6932   57.1657   43.2164 a2         1 CLA      0.023900
     60 C17        87.1507   58.3882   43.9984 a2         1 CLA     -0.105700
     61 C18        85.6179   58.6413   44.1760 a1         1 CLA      0.206800
     62 C19        85.2489   59.2572   45.4893 a3         1 CLA     -0.280100
     63 C20        84.9828   59.3963   43.0657 a3         1 CLA     -0.280100
     64 NC         76.0871   58.9972   40.5003 nx         1 CLA     -0.309200
     65 MG         77.4083   59.0156   38.8927 mg         1 CLA      0.895000
     66 HMD3       73.1402   54.9082   37.5909 dc         1 CLA      0.064300
     67 HMD2       72.3297   56.4564   37.7650 dc         1 CLA      0.064300
     68 HMD1       72.5969   55.7468   36.1039 dc         1 CLA      0.064300
     69 HMC3       76.1817   59.7126   44.5910 dc         1 CLA      0.052100
     70 HMC2       74.6702   60.6575   44.1591 dc         1 CLA      0.052100
     71 HMC1       74.6129   58.9604   44.8140 dc         1 CLA      0.052100
     72 HMB3       82.5634   62.2382   41.0684 dc         1 CLA      0.063600
     73 HMB2       83.0392   60.5576   40.7185 dc         1 CLA      0.063600
     74 HMB1       82.3990   61.7334   39.4134 dc         1 CLA      0.063600
     75 HMA3       82.8355   57.0254   36.3011 dc         1 CLA      0.058300
     76 HMA2       82.9254   58.0056   37.6265 dc         1 CLA      0.058300
     77 HMA1       81.8177   56.6054   37.7044 dc         1 CLA      0.058300
     78 HED3       78.3156   52.0974   35.8343 dc         1 CLA      0.079300
     79 HED2       78.1716   52.5227   34.2431 dc         1 CLA      0.079300
     80 HED1       79.6172   52.9480   35.1827 dc         1 CLA      0.079300
     81 HBC3       73.5011   55.8589   41.8274 dc         1 CLA      0.016300
     82 HBC2       73.9423   56.3471   43.4476 dc         1 CLA      0.016300
     83 HBC1       72.2308   56.1534   43.1036 dc         1 CLA      0.016300
     84 HBB2       81.2430   62.5069   44.5925 da         1 CLA      0.183000
     85 HBB1       82.2451   61.7470   43.2211 da         1 CLA      0.183000
     86 HBA2       81.1290   58.6383   32.1353 dc         1 CLA      0.029400
     87 HBA1       82.2607   58.6786   33.5307 dc         1 CLA      0.029400
     88 HAC2       72.6934   58.2822   43.3605 dc         1 CLA      0.029300
     89 HAC1       72.3818   57.9150   41.7458 dc         1 CLA      0.029300
     90 HAA2       79.3421   57.9784   33.4545 dc         1 CLA      0.028700
     91 HAA1       79.9496   59.5178   34.1276 dc         1 CLA      0.028700
     92 H203       85.3618   60.3781   42.9620 dc         1 CLA      0.065600
     93 H202       85.0394   58.8575   42.1328 dc         1 CLA      0.065600
     94 H201       83.9171   59.4629   43.2238 dc         1 CLA      0.065600
     95 H193       85.7533   58.7043   46.2986 dc         1 CLA      0.065600
     96 H192       85.6665   60.3229   45.4546 dc         1 CLA      0.065600
     97 H191       84.1198   59.2319   45.6180 dc         1 CLA      0.065600
     98 H172       87.6558   58.3668   44.9531 dc         1 CLA      0.027600
     99 H171       87.5817   59.2264   43.4899 dc         1 CLA      0.027600
    100 H162       87.2931   57.0731   42.2182 dc         1 CLA      0.002900
    101 H161       87.4828   56.2488   43.8505 dc         1 CLA      0.002900
    102 H152       89.4674   57.4992   44.1033 dc         1 CLA      0.029100
    103 H151       89.5888   58.1396   42.4790 dc         1 CLA      0.029100
    104 H143       90.5812   54.1001   42.9336 dc         1 CLA      0.063600
    105 H142       90.6082   55.0513   44.3640 dc         1 CLA      0.063600
    106 H141       89.0199   54.5403   43.6596 dc         1 CLA      0.063600
    107 H122       88.3381   55.3345   41.3169 dc         1 CLA      0.032500
    108 H121       89.9288   54.7629   40.6560 dc         1 CLA      0.032500
    109 H112       90.1151   57.1361   40.0458 dc         1 CLA      0.006600
    110 H111       88.4168   57.4892   40.1944 dc         1 CLA      0.006600
    111 H102       89.3210   55.1240   38.4916 dc         1 CLA      0.024100
    112 H101       89.2901   56.7366   37.9347 dc         1 CLA      0.024100
    113 HHD        73.2909   57.1188   39.7179 da         1 CLA      0.174300
    114 HHC        77.6385   60.5295   43.0730 da         1 CLA      0.136800
    115 HHB        81.8387   59.8122   38.4971 da         1 CLA      0.138300
    116 HBD        77.4048   57.0331   33.8117 dc         1 CLA      0.107700
    117 HAB        79.0801   62.0642   43.5603 da         1 CLA      0.155200
    118 H93        86.5003   57.7432   39.5384 dc         1 CLA      0.069500
    119 H92        87.1304   58.0818   37.9567 dc         1 CLA      0.069500
    120 H91        85.4995   57.4421   38.0731 dc         1 CLA      0.069500
    121 H8         86.8538   55.4132   39.2068 dc         1 CLA      0.029300
    122 H72        87.4453   54.3279   37.0321 dc         1 CLA      0.044400
    123 H71        87.4843   55.8257   36.2647 dc         1 CLA      0.044400
    124 H62        84.9040   55.8885   36.4357 dc         1 CLA      0.015600
    125 H61        85.1343   54.3651   37.4481 dc         1 CLA      0.015600
    126 H52        86.3609   53.3396   35.3567 dc         1 CLA      0.033200
    127 H51        85.7261   54.8059   34.5182 dc         1 CLA      0.033200
    128 H43        84.6139   51.3708   35.4570 dc         1 CLA      0.037000
    129 H42        83.3458   51.5739   34.3231 dc         1 CLA      0.037000
    130 H41        85.0039   51.7717   33.7218 dc         1 CLA      0.037000
    131 H3A        81.5198   59.2930   35.9674 dc         1 CLA      0.041100
    132 H2A        80.4364   56.6703   35.3568 dc         1 CLA      0.083100
    133 H2         82.5013   54.0055   35.7538 da         1 CLA      0.180900
    134 H18        85.1552   57.6437   44.1868 dc         1 CLA     -0.003900
    135 H13        91.0391   56.4444   42.1336 dc         1 CLA      0.019700
    136 H12        81.4402   54.1611   33.5728 dc         1 CLA      0.120400
    137 H11        83.0120   54.2852   32.6931 dc         1 CLA      0.120400
    138 C1         70.3695   61.2873   49.6922 Z1         2 LUT      0.509236
    139 C2         68.9728   61.1261   50.3530 Z2         2 LUT     -0.434695
    140 C3         68.0929   62.3482   50.6271 Z3         2 LUT      0.437453
    141 O3         68.3456   63.0504   51.8419 S1         2 LUT     -0.547129
    142 C4         68.3332   63.5058   49.6316 Z4         2 LUT     -0.468603
    143 C5         69.2531   63.1575   48.4339 Z5         2 LUT      0.279246
    144 C6         70.2061   62.1939   48.4277 Z6         2 LUT     -0.305473
    145 C7         70.6903   61.6934   47.1443 Z7         2 LUT      0.069402
    146 C8         71.4555   62.4356   46.2799 Z8         2 LUT     -0.191631
    147 C9         71.8964   62.0951   44.9586 Z9         2 LUT      0.196698
    148 C10        72.9910   62.8404   44.5429 Y1         2 LUT     -0.208611
    149 C11        73.6921   62.8299   43.3253 Y2         2 LUT      0.030784
    150 C12        74.8017   63.5628   43.0287 Y3         2 LUT     -0.220316
    151 C13        75.6709   63.4584   41.8487 Y4         2 LUT      0.215937
    152 C14        76.8522   64.1424   41.8145 Y5         2 LUT     -0.185793
    153 C15        77.8877   64.0585   40.7937 Y6         2 LUT     -0.057835
    154 C16        71.0155   59.8848   49.4627 Y7         2 LUT     -0.405615
    155 C17        71.2490   62.1496   50.6861 Y7         2 LUT     -0.405615
    156 C18        68.7696   63.9547   47.1770 Y9         2 LUT     -0.369639
    157 C19        71.2683   60.8146   44.2675 W1         2 LUT     -0.333362
    158 C20        75.2274   62.6786   40.6516 W2         2 LUT     -0.323439
    159 C21        89.0472   65.2669   34.4812 Z1         2 LUT      0.406104
    160 C22        89.7082   64.4064   33.2596 Z2         2 LUT     -0.404965
    161 C23        89.6293   65.0139   31.9314 Z3         2 LUT      0.391255
    162 O23        90.0080   63.9120   31.0532 S1         2 LUT     -0.528210
    163 C24        88.3436   65.8340   31.7219 W6         2 LUT     -0.258361
    164 C25        87.4673   66.1305   32.7213 Z5         2 LUT      0.133546
    165 C26        87.5913   65.5653   34.0901 W8         2 LUT     -0.147008
    166 C27        86.7832   66.3852   35.0668 Z7         2 LUT      0.023843
    167 C28        85.8519   65.8069   35.7900 Z8         2 LUT     -0.216987
    168 C29        85.0904   66.3647   36.9512 Z9         2 LUT      0.206524
    169 C30        84.0158   65.6311   37.4163 Y1         2 LUT     -0.215556
    170 C31        83.3201   65.9937   38.5788 Y2         2 LUT      0.025142
    171 C32        82.2341   65.2663   38.9553 Y3         2 LUT     -0.212209
    172 C33        81.3958   65.3943   40.1758 Y4         2 LUT      0.240937
    173 C34        80.2055   64.6675   40.1605 Y5         2 LUT     -0.218862
    174 C35        79.1115   64.6943   41.0571 Y6         2 LUT     -0.023547
    175 C36        89.8577   66.5937   34.7472 Y7         2 LUT     -0.393485
    176 C37        89.1593   64.4903   35.8395 Y7         2 LUT     -0.393485
    177 C38        86.2296   66.9175   32.3015 Y9         2 LUT     -0.387526
    178 C39        85.5611   67.7219   37.4438 W1         2 LUT     -0.322618
    179 C40        81.9320   66.3080   41.2231 W2         2 LUT     -0.358472
    180 H403       82.1757   67.2515   40.8205 R7         2 LUT      0.097720
    181 H402       81.2283   66.5123   42.0225 R7         2 LUT      0.097720
    182 H401       82.8114   66.0043   41.7730 R7         2 LUT      0.097720
    183 H393       84.7680   68.1554   37.9886 R4         2 LUT      0.082505
    184 H392       86.4516   67.6420   38.0469 R4         2 LUT      0.082505
    185 H391       85.6965   68.3821   36.5427 R4         2 LUT      0.082505
    186 H383       86.3540   67.5229   31.3925 R1         2 LUT      0.104030
    187 H382       85.4174   66.1727   32.1521 R1         2 LUT      0.104030
    188 H381       85.8119   67.5707   33.1039 R1         2 LUT      0.104030
    189 H373       90.1585   64.1013   35.9708 T4         2 LUT      0.089537
    190 H372       88.9187   65.0440   36.6768 T4         2 LUT      0.089537
    191 H371       88.5124   63.5928   35.9630 T4         2 LUT      0.089537
    192 H363       90.9069   66.4430   35.0016 T4         2 LUT      0.089537
    193 H362       89.8372   67.1748   33.8417 T4         2 LUT      0.089537
    194 H361       89.4817   67.2651   35.5511 T4         2 LUT      0.089537
    195 H222       90.7092   64.1521   33.5026 U2         2 LUT      0.127376
    196 H221       89.0390   63.5427   33.1272 U2         2 LUT      0.127376
    197 H203       75.6558   62.9801   39.6990 R7         2 LUT      0.087068
    198 H202       75.4147   61.6088   40.6679 R7         2 LUT      0.087068
    199 H201       74.1651   62.7985   40.4442 R7         2 LUT      0.087068
    200 H193       71.6843   59.9921   44.6618 R4         2 LUT      0.089716
    201 H192       70.1067   60.7121   44.3543 R4         2 LUT      0.089716
    202 H191       71.4692   60.8885   43.1602 R4         2 LUT      0.089716
    203 H183       68.1690   63.3203   46.4710 R1         2 LUT      0.094572
    204 H182       68.2836   64.9625   47.3684 R1         2 LUT      0.094572
    205 H181       69.6326   64.2356   46.7516 R1         2 LUT      0.094572
    206 H173       71.4407   61.7534   51.6874 T4         2 LUT      0.093752
    207 H172       72.2754   62.1886   50.4361 T4         2 LUT      0.093752
    208 H171       71.0024   63.2436   50.8863 T4         2 LUT      0.093752
    209 H163       71.9207   60.0551   49.0165 T4         2 LUT      0.093752
    210 H162       71.3170   59.3479   50.2836 T4         2 LUT      0.093752
    211 H161       70.4371   59.2102   48.7857 T4         2 LUT      0.093752
    212 HO3        67.9990   62.5298   52.5641 Q1         2 LUT      0.300121
    213 H8         71.6609   63.4297   46.6352 U7         2 LUT      0.080784
    214 H7         70.5186   60.6428   46.8756 U6         2 LUT      0.042190
    215 H42        67.3609   63.8126   49.1826 U5         2 LUT      0.145166
    216 H41        68.7033   64.3991   50.1349 U5         2 LUT      0.145166
    217 H35        79.1587   65.2736   42.0064 T3         2 LUT      0.077919
    218 H34        80.0264   64.0782   39.2816 T2         2 LUT      0.073626
    219 H32        81.9688   64.4664   38.3301 T1         2 LUT      0.092510
    220 H31        83.7750   66.7129   39.2423 U9         2 LUT      0.070048
    221 H30        83.8034   64.6751   36.9491 U8         2 LUT      0.085442
    222 H3         67.0858   62.0714   50.5721 U3         2 LUT     -0.031596
    223 H28        85.4389   64.9097   35.3071 U7         2 LUT      0.084728
    224 H27        87.0393   67.3808   35.3295 U6         2 LUT      0.087291
    225 H26        86.9836   64.6721   33.9640 Q6         2 LUT      0.075325
    226 H24        88.1013   66.0779   30.6451 Q5         2 LUT      0.094482
    227 H23        90.4303   65.7132   31.8697 U3         2 LUT     -0.024869
    228 H22        68.4261   60.4715   49.7178 U2         2 LUT      0.127376
    229 H21        69.0539   60.6056   51.3066 U2         2 LUT      0.127376
    230 H15        77.7207   63.4635   39.9017 T3         2 LUT      0.093200
    231 H14        77.1098   64.7543   42.6130 T2         2 LUT      0.068865
    232 H12        75.1058   64.3241   43.7844 T1         2 LUT      0.095507
    233 H11        73.4462   62.1221   42.5080 U9         2 LUT      0.068930
    234 H10        73.3062   63.5377   45.3160 U8         2 LUT      0.083911
    235 H1         89.8816   64.1015   30.0495 Q1         2 LUT      0.297311
@<TRIPOS>BOND
    1     6     1 1
    2     7     2 1
    3     8     3 1
    4     9     4 1
    5    11     4 1
    6    12     6 1
    7    13     9 1
    8    16     9 1
    9    25     5 1
   10    25    16 1
   11    26    10 1
   12    26    17 1
   13    27    18 1
   14    28    14 1
   15    28    19 1
   16    29    12 1
   17    30    13 1
   18    31    24 1
   19    32     1 1
   20    32    25 1
   21    33    21 1
   22    33    26 1
   23    34    22 1
   24    34    27 1
   25    35    23 1
   26    35    28 1
   27    36    12 1
   28    36    24 1
   29    37    13 1
   30    37    15 1
   31    38    31 1
   32    39    20 1
   33    39    32 1
   34    40     2 1
   35    40    33 1
   36    41     3 1
   37    41    34 1
   38    42     4 1
   39    42    35 1
   40    43    38 1
   41    44     5 1
   42    44    17 1
   43    44    39 1
   44    45    10 1
   45    45    18 1
   46    45    40 1
   47    46    19 1
   48    46    41 1
   49    47    14 1
   50    47    16 1
   51    47    42 1
   52    48    38 1
   53    49    48 1
   54    50    49 1
   55    51    50 1
   56    52    51 1
   57    53    51 1
   58    54    53 1
   59    55    54 1
   60    56    55 1
   61    57    56 1
   62    58    56 1
   63    59    58 1
   64    60    59 1
   65    61    60 1
   66    62    61 1
   67    63    61 1
   68    64    27 1
   69    64    46 1
   70    65     5 1
   71    65    10 1
   72    65    64 1
   73    65    14 1
   74    66    23 1
   75    67    23 1
   76    68    23 1
   77    69    22 1
   78    70    22 1
   79    71    22 1
   80    72    21 1
   81    73    21 1
   82    74    21 1
   83    75    20 1
   84    76    20 1
   85    77    20 1
   86    78    15 1
   87    79    15 1
   88    80    15 1
   89    81     8 1
   90    82     8 1
   91    83     8 1
   92    84     7 1
   93    85     7 1
   94    86     6 1
   95    87     6 1
   96    88     3 1
   97    89     3 1
   98    90     1 1
   99    91     1 1
  100    92    63 1
  101    93    63 1
  102    94    63 1
  103    95    62 1
  104    96    62 1
  105    97    62 1
  106    98    60 1
  107    99    60 1
  108   100    59 1
  109   101    59 1
  110   102    58 1
  111   103    58 1
  112   104    57 1
  113   105    57 1
  114   106    57 1
  115   107    55 1
  116   108    55 1
  117   109    54 1
  118   110    54 1
  119   111    53 1
  120   112    53 1
  121   113    19 1
  122   114    18 1
  123   115    17 1
  124   116     9 1
  125   117     2 1
  126   118    52 1
  127   119    52 1
  128   120    52 1
  129   121    51 1
  130   122    50 1
  131   123    50 1
  132   124    49 1
  133   125    49 1
  134   126    48 1
  135   127    48 1
  136   128    43 1
  137   129    43 1
  138   130    43 1
  139   131    39 1
  140   132    32 1
  141   133    31 1
  142   134    61 1
  143   135    56 1
  144   136    24 1
  145   137    24 1
  146   139   138 1
  147   140   139 1
  148   141   140 1
  149   142   140 1
  150   143   142 1
  151   144   138 1
  152   144   143 1
  153   145   144 1
  154   146   145 1
  155   147   146 1
  156   148   147 1
  157   149   148 1
  158   150   149 1
  159   151   150 1
  160   152   151 1
  161   153   152 1
  162   154   138 1
  163   155   138 1
  164   156   143 1
  165   157   147 1
  166   158   151 1
  167   160   159 1
  168   161   160 1
  169   162   161 1
  170   163   161 1
  171   164   163 1
  172   165   159 1
  173   165   164 1
  174   166   165 1
  175   167   166 1
  176   168   167 1
  177   169   168 1
  178   170   169 1
  179   171   170 1
  180   172   171 1
  181   173   172 1
  182   174   153 1
  183   174   173 1
  184   175   159 1
  185   176   159 1
  186   177   164 1
  187   178   168 1
  188   179   172 1
  189   180   179 1
  190   181   179 1
  191   182   179 1
  192   183   178 1
  193   184   178 1
  194   185   178 1
  195   186   177 1
  196   187   177 1
  197   188   177 1
  198   189   176 1
  199   190   176 1
  200   191   176 1
  201   192   175 1
  202   193   175 1
  203   194   175 1
  204   195   160 1
  205   196   160 1
  206   197   158 1
  207   198   158 1
  208   199   158 1
  209   200   157 1
  210   201   157 1
  211   202   157 1
  212   203   156 1
  213   204   156 1
  214   205   156 1
  215   206   155 1
  216   207   155 1
  217   208   155 1
  218   209   154 1
  219   210   154 1
  220   211   154 1
  221   212   141 1
  222   213   146 1
  223   214   145 1
  224   215   142 1
  225   216   142 1
  226   217   174 1
  227   218   173 1
  228   219   171 1
  229   220   170 1
  230   221   169 1
  231   222   140 1
  232   223   167 1
  233   224   166 1
  234   225   165 1
  235   226   163 1
  236   227   161 1
  237   228   139 1
  238   229   139 1
  239   230   153 1
  240   231   152 1
  241   232   150 1
  242   233   149 1
  243   234   148 1
  244   235   162 1
  245   65    153 1
  246   65    174 1
@<TRIPOS>SUBSTRUCTURE
      1 CLA               1 ****               0 ****  **** 
      2 LUT             138 ****               0 ****  **** 
