@<TRIPOS>MOLECULE
Cpptraj generated mol2 file.
  235   246     2     0     0
SMALL
USER_CHARGES


@<TRIPOS>ATOM
      1 CAA        79.8462   57.5018   34.5306 a2         1 CLA     -0.055900
      2 CAB        79.5610   61.7000   43.1037 c8         1 CLA     -0.148500
      3 CAC        72.7577   57.6154   42.9634 a2         1 CLA     -0.012600
      4 CAD        75.3858   54.9041   35.9384 ck         1 CLA      0.398800
      5 NA         78.6725   57.9731   37.7508 ns         1 CLA     -0.225500
      6 CBA        81.0821   57.1145   33.5677 a2         1 CLA     -0.135000
      7 CBB        80.6478   62.0549   43.7837 c0         1 CLA     -0.395200
      8 CBC        72.7093   56.1076   43.3891 a3         1 CLA     -0.037700
      9 CBD        76.7750   55.4730   35.4405 a1         1 CLA     -0.053900
     10 NB         78.5868   59.5988   40.2874 nm         1 CLA     -0.295700
     11 OBD        74.7655   54.0301   35.2900 o2         1 CLA     -0.494600
     12 CGA        81.2808   55.6615   33.1723 c4         1 CLA      0.827000
     13 CGD        77.8626   54.4127   35.3947 c4         1 CLA      0.655300
     14 ND         75.7176   57.3279   38.4560 nm         1 CLA     -0.291600
     15 CED        79.1023   53.0911   36.9210 a3         1 CLA      0.005400
     16 CHA        77.1506   56.4864   36.5452 cs         1 CLA     -0.123800
     17 CHB        80.5223   59.0401   38.8917 aa         1 CLA     -0.291900
     18 CHC        77.1672   60.0662   42.2937 aa         1 CLA     -0.090400
     19 CHD        73.8850   57.3067   40.0847 aa         1 CLA     -0.052000
     20 CMA        82.0207   56.6511   37.5472 a3         1 CLA     -0.230700
     21 CMB        81.9943   61.1200   40.8549 a3         1 CLA     -0.180800
     22 CMC        74.8544   59.4957   44.5361 a3         1 CLA     -0.134000
     23 CMD        72.5467   55.2034   38.2259 a3         1 CLA     -0.141100
     24 C1         81.9568   53.5520   33.9622 a2         1 CLA      0.023000
     25 C1A        78.4173   57.1110   36.7541 ac         1 CLA     -0.015100
     26 C1B        79.8851   59.7453   39.8959 cr         1 CLA      0.054700
     27 C1C        76.0481   59.2743   42.1510 cn         1 CLA     -0.005600
     28 C1D        74.4631   56.9026   38.8536 ap         1 CLA     -0.047300
     29 O1A        80.7513   55.1096   32.2244 o2         1 CLA     -0.610800
     30 O1D        78.3043   53.8035   34.4312 o2         1 CLA     -0.558200
     31 C2         82.8510   52.9133   35.0180 c8         1 CLA     -0.325100
     32 C2A        79.7623   56.9015   35.9528 a1         1 CLA      0.098600
     33 C2B        80.5328   60.6459   40.8546 cb         1 CLA      0.088500
     34 C2C        74.9197   59.0077   43.1032 cb         1 CLA      0.053700
     35 C2D        73.9241   55.9437   37.9415 cb         1 CLA      0.058900
     36 O2A        81.9994   54.9940   34.0994 o1         1 CLA     -0.437200
     37 O2D        78.2002   54.1510   36.7210 o1         1 CLA     -0.357600
     38 C3         84.0826   52.4374   34.7490 c5         1 CLA      0.031200
     39 C3A        80.8945   57.6056   36.8636 a1         1 CLA      0.166800
     40 C3B        79.5881   60.9481   41.8674 cb         1 CLA      0.035000
     41 C3C        73.9950   58.1892   42.3989 cb         1 CLA     -0.089900
     42 C3D        74.9836   55.6684   37.0521 cb         1 CLA     -0.035900
     43 C4         84.2465   51.0740   34.0123 a3         1 CLA     -0.053300
     44 C4A        79.9727   58.2877   37.8360 ac         1 CLA      0.001800
     45 C4B        78.3711   60.2228   41.4776 cn         1 CLA     -0.020900
     46 C4C        74.5238   58.0771   41.0766 cr         1 CLA     -0.044400
     47 C4D        76.0156   56.6032   37.3117 c6         1 CLA     -0.046000
     48 C5         85.2599   53.3533   34.9044 a2         1 CLA     -0.070400
     49 C6         85.4955   53.6523   36.4138 a2         1 CLA      0.043900
     50 C7         86.7449   54.4776   36.7712 a2         1 CLA     -0.150000
     51 C8         86.9837   54.8386   38.2377 a1         1 CLA      0.064200
     52 C9         85.7866   55.5405   38.9785 a3         1 CLA     -0.259300
     53 C10        88.3368   55.5259   38.3591 a2         1 CLA     -0.071900
     54 C11        88.7434   56.0772   39.7481 a2         1 CLA      0.014500
     55 C12        88.8869   54.9334   40.7585 a2         1 CLA     -0.112100
     56 C13        89.8545   55.1330   41.9075 a1         1 CLA      0.089200
     57 C14        89.9424   53.9582   42.8283 a3         1 CLA     -0.239100
     58 C15        89.5165   56.4745   42.6630 a2         1 CLA     -0.102200
     59 C16        88.1629   56.4677   43.4139 a2         1 CLA      0.023900
     60 C17        88.0581   57.8502   44.1428 a2         1 CLA     -0.105700
     61 C18        86.6983   58.2506   44.7879 a1         1 CLA      0.206800
     62 C19        87.0754   59.1866   45.9521 a3         1 CLA     -0.280100
     63 C20        85.7037   58.8034   43.8153 a3         1 CLA     -0.280100
     64 NC         75.8085   58.6305   40.9611 nx         1 CLA     -0.309200
     65 MG         77.1160   58.5449   39.2563 mg         1 CLA      0.895000
     66 HMD3       72.3191   54.4588   37.5045 dc         1 CLA      0.064300
     67 HMD2       72.6972   54.6889   39.1517 dc         1 CLA      0.064300
     68 HMD1       71.7223   55.8775   38.3046 dc         1 CLA      0.064300
     69 HMC3       73.8767   59.4229   44.9039 dc         1 CLA      0.052100
     70 HMC2       75.5469   58.9032   45.2420 dc         1 CLA      0.052100
     71 HMC1       75.2115   60.5509   44.6052 dc         1 CLA      0.052100
     72 HMB3       82.1007   62.2025   41.1497 dc         1 CLA      0.063600
     73 HMB2       82.3873   60.4466   41.6083 dc         1 CLA      0.063600
     74 HMB1       82.4058   61.0586   39.8197 dc         1 CLA      0.063600
     75 HMA3       81.6202   56.0059   38.3466 dc         1 CLA      0.058300
     76 HMA2       82.4683   56.0353   36.7794 dc         1 CLA      0.058300
     77 HMA1       82.7439   57.3423   37.8949 dc         1 CLA      0.058300
     78 HED3       78.5758   52.1732   36.6381 dc         1 CLA      0.079300
     79 HED2       80.0002   53.1461   36.2811 dc         1 CLA      0.079300
     80 HED1       79.3020   52.8792   37.9934 dc         1 CLA      0.079300
     81 HBC3       73.0090   55.4279   42.5585 dc         1 CLA      0.016300
     82 HBC2       73.3337   55.9317   44.2463 dc         1 CLA      0.016300
     83 HBC1       71.6328   55.8614   43.6550 dc         1 CLA      0.016300
     84 HBB2       80.5641   62.6435   44.7541 da         1 CLA      0.183000
     85 HBB1       81.7337   61.7562   43.5292 da         1 CLA      0.183000
     86 HBA2       81.0657   57.6244   32.6311 dc         1 CLA      0.029400
     87 HBA1       82.0175   57.3413   34.0854 dc         1 CLA      0.029400
     88 HAC2       72.4517   58.0379   43.9732 dc         1 CLA      0.029300
     89 HAC1       71.9090   57.7424   42.2408 dc         1 CLA      0.029300
     90 HAA2       79.0244   57.0289   34.0724 dc         1 CLA      0.028700
     91 HAA1       79.7776   58.5591   34.4010 dc         1 CLA      0.028700
     92 H203       86.2062   59.5545   43.1874 dc         1 CLA      0.065600
     93 H202       85.3395   57.9356   43.1856 dc         1 CLA      0.065600
     94 H201       84.9685   59.2924   44.3384 dc         1 CLA      0.065600
     95 H193       87.6492   58.6421   46.6737 dc         1 CLA      0.065600
     96 H192       87.5930   60.1446   45.5947 dc         1 CLA      0.065600
     97 H191       86.1128   59.3983   46.4692 dc         1 CLA      0.065600
     98 H172       88.7899   57.7535   45.0000 dc         1 CLA      0.027600
     99 H171       88.3524   58.7245   43.4761 dc         1 CLA      0.027600
    100 H162       87.2942   56.4242   42.7960 dc         1 CLA      0.002900
    101 H161       88.1464   55.5785   44.0987 dc         1 CLA      0.002900
    102 H152       90.2894   56.6229   43.3879 dc         1 CLA      0.029100
    103 H151       89.5211   57.2962   41.9541 dc         1 CLA      0.029100
    104 H143       89.0990   53.8240   43.4578 dc         1 CLA      0.063600
    105 H142       90.0903   53.0364   42.2906 dc         1 CLA      0.063600
    106 H141       90.7668   54.0951   43.5225 dc         1 CLA      0.063600
    107 H122       87.9499   54.5254   41.1847 dc         1 CLA      0.032500
    108 H121       89.2980   54.1160   40.1921 dc         1 CLA      0.032500
    109 H112       89.6336   56.6127   39.5157 dc         1 CLA      0.006600
    110 H111       88.0823   56.8649   40.0883 dc         1 CLA      0.006600
    111 H102       89.0039   54.7262   38.0223 dc         1 CLA      0.024100
    112 H101       88.3589   56.3819   37.6418 dc         1 CLA      0.024100
    113 HHD        72.9564   56.9111   40.3912 da         1 CLA      0.174300
    114 HHC        77.0476   60.3789   43.3375 da         1 CLA      0.136800
    115 HHB        81.6313   59.2271   38.8865 da         1 CLA      0.138300
    116 HBD        76.6189   55.9161   34.4490 dc         1 CLA      0.107700
    117 HAB        78.6061   62.0600   43.3906 da         1 CLA      0.155200
    118 H93        84.9044   54.9005   38.7792 dc         1 CLA      0.069500
    119 H92        86.0422   55.5523   40.0252 dc         1 CLA      0.069500
    120 H91        85.7167   56.5398   38.6448 dc         1 CLA      0.069500
    121 H8         87.1431   53.8670   38.8246 dc         1 CLA      0.029300
    122 H72        87.6267   53.8914   36.4985 dc         1 CLA      0.044400
    123 H71        86.6473   55.4199   36.1937 dc         1 CLA      0.044400
    124 H62        84.6181   54.0979   36.9202 dc         1 CLA      0.015600
    125 H61        85.6690   52.7255   36.9487 dc         1 CLA      0.015600
    126 H52        86.1713   52.9758   34.5392 dc         1 CLA      0.033200
    127 H51        85.0042   54.3083   34.3835 dc         1 CLA      0.033200
    128 H43        84.4236   50.2739   34.7612 dc         1 CLA      0.037000
    129 H42        83.3035   50.8042   33.6346 dc         1 CLA      0.037000
    130 H41        85.0044   51.1998   33.2528 dc         1 CLA      0.037000
    131 H3A        81.4722   58.4282   36.4116 dc         1 CLA      0.041100
    132 H2A        80.0440   55.8317   35.8387 dc         1 CLA      0.083100
    133 H2         82.4014   52.6309   35.9623 da         1 CLA      0.180900
    134 H18        86.3595   57.2404   45.1644 dc         1 CLA     -0.003900
    135 H13        90.8794   55.3717   41.5275 dc         1 CLA      0.019700
    136 H12        80.9186   53.0910   33.9137 dc         1 CLA      0.120400
    137 H11        82.4330   53.2699   33.0425 dc         1 CLA      0.120400
    138 C1         69.5052   60.6446   49.9312 Z1         2 LUT      0.509236
    139 C2         68.0935   60.5598   50.5722 Z2         2 LUT     -0.434695
    140 C3         67.3874   61.8481   50.8594 Z3         2 LUT      0.437453
    141 O3         67.5956   62.2633   52.2292 S1         2 LUT     -0.547129
    142 C4         67.7307   63.0041   49.9511 Z4         2 LUT     -0.468603
    143 C5         68.5223   62.6624   48.7205 Z5         2 LUT      0.279246
    144 C6         69.4217   61.6404   48.8049 Z6         2 LUT     -0.305473
    145 C7         69.8448   61.1687   47.4431 Z7         2 LUT      0.069402
    146 C8         70.6737   61.8008   46.5802 Z8         2 LUT     -0.191631
    147 C9         71.1961   61.3264   45.3233 Z9         2 LUT      0.196698
    148 C10        72.1896   62.1003   44.8704 Y1         2 LUT     -0.208611
    149 C11        72.8768   62.0073   43.6451 Y2         2 LUT      0.030784
    150 C12        73.7303   62.9733   43.1129 Y3         2 LUT     -0.220316
    151 C13        74.6837   62.7768   41.9889 Y4         2 LUT      0.215937
    152 C14        75.8693   63.4242   42.0021 Y5         2 LUT     -0.185793
    153 C15        76.9144   63.3069   41.1038 Y6         2 LUT     -0.057835
    154 C16        69.8821   59.2143   49.6092 Y7         2 LUT     -0.405615
    155 C17        70.4573   61.0552   51.1063 Y7         2 LUT     -0.405615
    156 C18        68.0912   63.5207   47.5354 Y9         2 LUT     -0.369639
    157 C19        70.5705   60.1903   44.5874 W1         2 LUT     -0.333362
    158 C20        74.2259   61.9643   40.7577 W2         2 LUT     -0.323439
    159 C21        88.5058   64.4065   35.7113 Z1         2 LUT      0.406104
    160 C22        89.2785   63.7856   34.5343 Z2         2 LUT     -0.404965
    161 C23        89.3866   64.6187   33.2456 Z3         2 LUT      0.391255
    162 O23        90.0145   63.7535   32.1642 S1         2 LUT     -0.528210
    163 C24        88.1410   65.3928   32.9519 W6         2 LUT     -0.258361
    164 C25        87.1154   65.5728   33.8039 Z5         2 LUT      0.133546
    165 C26        87.0997   64.9509   35.1387 W8         2 LUT     -0.147008
    166 C27        86.3114   65.6006   36.2118 Z7         2 LUT      0.023843
    167 C28        85.2978   64.9667   36.9618 Z8         2 LUT     -0.216987
    168 C29        84.6430   65.3264   38.1954 Z9         2 LUT      0.206524
    169 C30        83.5702   64.6132   38.5904 Y1         2 LUT     -0.215556
    170 C31        82.7451   64.7544   39.6783 Y2         2 LUT      0.025142
    171 C32        81.4202   64.5485   39.6896 Y3         2 LUT     -0.212209
    172 C33        80.4755   64.6877   40.7504 Y4         2 LUT      0.240937
    173 C34        79.2149   64.1025   40.5208 Y5         2 LUT     -0.218862
    174 C35        77.9788   64.0891   41.2807 Y6         2 LUT     -0.023547
    175 C36        89.3295   65.5059   36.3758 Y7         2 LUT     -0.393485
    176 C37        88.4449   63.2967   36.7200 Y7         2 LUT     -0.393485
    177 C38        85.9195   66.4211   33.3324 Y9         2 LUT     -0.387526
    178 C39        85.2573   66.3282   39.1893 W1         2 LUT     -0.322618
    179 C40        80.8113   65.5453   41.9458 W2         2 LUT     -0.358472
    180 H403       80.4133   65.0792   42.8345 R7         2 LUT      0.097720
    181 H402       81.8935   65.7510   42.0659 R7         2 LUT      0.097720
    182 H401       80.3020   66.4653   41.8589 R7         2 LUT      0.097720
    183 H393       84.5777   67.1194   39.3205 R4         2 LUT      0.082505
    184 H392       85.5221   65.8156   40.1029 R4         2 LUT      0.082505
    185 H391       86.2221   66.7914   38.9978 R4         2 LUT      0.082505
    186 H383       84.9972   66.0511   33.8419 R1         2 LUT      0.104030
    187 H382       85.9806   67.4805   33.3925 R1         2 LUT      0.104030
    188 H381       85.7167   66.1653   32.2803 R1         2 LUT      0.104030
    189 H373       89.4200   62.8967   36.9549 T4         2 LUT      0.089537
    190 H372       87.9338   63.6477   37.5631 T4         2 LUT      0.089537
    191 H371       87.8859   62.4780   36.3092 T4         2 LUT      0.089537
    192 H363       88.8435   66.0588   37.2157 T4         2 LUT      0.089537
    193 H362       90.3304   65.1753   36.6302 T4         2 LUT      0.089537
    194 H361       89.4742   66.3570   35.6553 T4         2 LUT      0.089537
    195 H222       90.3038   63.4096   34.8046 U2         2 LUT      0.127376
    196 H221       88.6018   62.9526   34.2826 U2         2 LUT      0.127376
    197 H203       74.8204   62.0794   39.8354 R7         2 LUT      0.087068
    198 H202       74.1900   60.8567   40.9283 R7         2 LUT      0.087068
    199 H201       73.2021   62.1499   40.5081 R7         2 LUT      0.087068
    200 H193       70.9289   59.9693   43.5782 R4         2 LUT      0.089716
    201 H192       70.6246   59.2502   45.1714 R4         2 LUT      0.089716
    202 H191       69.5370   60.4259   44.4804 R4         2 LUT      0.089716
    203 H183       68.7605   63.3580   46.7022 R1         2 LUT      0.094572
    204 H182       67.1133   63.2410   47.2001 R1         2 LUT      0.094572
    205 H181       68.1043   64.5943   47.7625 R1         2 LUT      0.094572
    206 H173       70.2957   62.1038   51.3379 T4         2 LUT      0.093752
    207 H172       70.4250   60.6049   52.0740 T4         2 LUT      0.093752
    208 H171       71.4584   60.8634   50.6305 T4         2 LUT      0.093752
    209 H163       70.8457   59.1448   49.2174 T4         2 LUT      0.093752
    210 H162       69.7961   58.6333   50.5627 T4         2 LUT      0.093752
    211 H161       69.0587   58.7608   49.0196 T4         2 LUT      0.093752
    212 HO3        66.8833   61.9674   52.8669 Q1         2 LUT      0.300121
    213 H8         71.1850   62.6540   46.8874 U7         2 LUT      0.080784
    214 H7         69.5605   60.1569   47.1276 U6         2 LUT      0.042190
    215 H42        66.8063   63.5448   49.6863 U5         2 LUT      0.145166
    216 H41        68.3532   63.6880   50.5428 U5         2 LUT      0.145166
    217 H35        78.0005   64.5349   42.2611 T3         2 LUT      0.077919
    218 H34        79.0386   63.5626   39.5851 T2         2 LUT      0.073626
    219 H32        80.9636   64.1013   38.8351 T1         2 LUT      0.092510
    220 H31        83.0656   65.3726   40.5327 U9         2 LUT      0.070048
    221 H30        83.0730   63.9684   37.8458 U8         2 LUT      0.085442
    222 H3         66.3201   61.5794   50.5693 U3         2 LUT     -0.031596
    223 H28        84.8530   64.0329   36.6256 U7         2 LUT      0.084728
    224 H27        86.6708   66.5464   36.6683 U6         2 LUT      0.087291
    225 H26        86.5468   63.9944   34.9845 Q6         2 LUT      0.075325
    226 H24        88.1290   65.8179   31.9147 Q5         2 LUT      0.094482
    227 H23        90.1745   65.2930   33.5244 U3         2 LUT     -0.024869
    228 H22        67.3679   60.0300   49.8800 U2         2 LUT      0.127376
    229 H21        68.0969   59.9234   51.4470 U2         2 LUT      0.127376
    230 H15        76.9098   62.6423   40.2267 T3         2 LUT      0.093200
    231 H14        75.9922   64.0763   42.8739 T2         2 LUT      0.068865
    232 H12        73.8398   63.8616   43.7270 T1         2 LUT      0.095507
    233 H11        72.8378   61.1573   42.9645 U9         2 LUT      0.068930
    234 H10        72.5304   62.9605   45.5004 U8         2 LUT      0.083911
    235 H1         89.4701   63.6346   31.4167 Q1         2 LUT      0.297311
@<TRIPOS>BOND
    1     6     1 1
    2     7     2 1
    3     8     3 1
    4     9     4 1
    5    11     4 1
    6    12     6 1
    7    13     9 1
    8    16     9 1
    9    25     5 1
   10    25    16 1
   11    26    10 1
   12    26    17 1
   13    27    18 1
   14    28    14 1
   15    28    19 1
   16    29    12 1
   17    30    13 1
   18    31    24 1
   19    32     1 1
   20    32    25 1
   21    33    21 1
   22    33    26 1
   23    34    22 1
   24    34    27 1
   25    35    23 1
   26    35    28 1
   27    36    12 1
   28    36    24 1
   29    37    13 1
   30    37    15 1
   31    38    31 1
   32    39    20 1
   33    39    32 1
   34    40     2 1
   35    40    33 1
   36    41     3 1
   37    41    34 1
   38    42     4 1
   39    42    35 1
   40    43    38 1
   41    44     5 1
   42    44    17 1
   43    44    39 1
   44    45    10 1
   45    45    18 1
   46    45    40 1
   47    46    19 1
   48    46    41 1
   49    47    14 1
   50    47    16 1
   51    47    42 1
   52    48    38 1
   53    49    48 1
   54    50    49 1
   55    51    50 1
   56    52    51 1
   57    53    51 1
   58    54    53 1
   59    55    54 1
   60    56    55 1
   61    57    56 1
   62    58    56 1
   63    59    58 1
   64    60    59 1
   65    61    60 1
   66    62    61 1
   67    63    61 1
   68    64    27 1
   69    64    46 1
   70    65     5 1
   71    65    10 1
   72    65    64 1
   73    65    14 1
   74    66    23 1
   75    67    23 1
   76    68    23 1
   77    69    22 1
   78    70    22 1
   79    71    22 1
   80    72    21 1
   81    73    21 1
   82    74    21 1
   83    75    20 1
   84    76    20 1
   85    77    20 1
   86    78    15 1
   87    79    15 1
   88    80    15 1
   89    81     8 1
   90    82     8 1
   91    83     8 1
   92    84     7 1
   93    85     7 1
   94    86     6 1
   95    87     6 1
   96    88     3 1
   97    89     3 1
   98    90     1 1
   99    91     1 1
  100    92    63 1
  101    93    63 1
  102    94    63 1
  103    95    62 1
  104    96    62 1
  105    97    62 1
  106    98    60 1
  107    99    60 1
  108   100    59 1
  109   101    59 1
  110   102    58 1
  111   103    58 1
  112   104    57 1
  113   105    57 1
  114   106    57 1
  115   107    55 1
  116   108    55 1
  117   109    54 1
  118   110    54 1
  119   111    53 1
  120   112    53 1
  121   113    19 1
  122   114    18 1
  123   115    17 1
  124   116     9 1
  125   117     2 1
  126   118    52 1
  127   119    52 1
  128   120    52 1
  129   121    51 1
  130   122    50 1
  131   123    50 1
  132   124    49 1
  133   125    49 1
  134   126    48 1
  135   127    48 1
  136   128    43 1
  137   129    43 1
  138   130    43 1
  139   131    39 1
  140   132    32 1
  141   133    31 1
  142   134    61 1
  143   135    56 1
  144   136    24 1
  145   137    24 1
  146   139   138 1
  147   140   139 1
  148   141   140 1
  149   142   140 1
  150   143   142 1
  151   144   138 1
  152   144   143 1
  153   145   144 1
  154   146   145 1
  155   147   146 1
  156   148   147 1
  157   149   148 1
  158   150   149 1
  159   151   150 1
  160   152   151 1
  161   153   152 1
  162   154   138 1
  163   155   138 1
  164   156   143 1
  165   157   147 1
  166   158   151 1
  167   160   159 1
  168   161   160 1
  169   162   161 1
  170   163   161 1
  171   164   163 1
  172   165   159 1
  173   165   164 1
  174   166   165 1
  175   167   166 1
  176   168   167 1
  177   169   168 1
  178   170   169 1
  179   171   170 1
  180   172   171 1
  181   173   172 1
  182   174   153 1
  183   174   173 1
  184   175   159 1
  185   176   159 1
  186   177   164 1
  187   178   168 1
  188   179   172 1
  189   180   179 1
  190   181   179 1
  191   182   179 1
  192   183   178 1
  193   184   178 1
  194   185   178 1
  195   186   177 1
  196   187   177 1
  197   188   177 1
  198   189   176 1
  199   190   176 1
  200   191   176 1
  201   192   175 1
  202   193   175 1
  203   194   175 1
  204   195   160 1
  205   196   160 1
  206   197   158 1
  207   198   158 1
  208   199   158 1
  209   200   157 1
  210   201   157 1
  211   202   157 1
  212   203   156 1
  213   204   156 1
  214   205   156 1
  215   206   155 1
  216   207   155 1
  217   208   155 1
  218   209   154 1
  219   210   154 1
  220   211   154 1
  221   212   141 1
  222   213   146 1
  223   214   145 1
  224   215   142 1
  225   216   142 1
  226   217   174 1
  227   218   173 1
  228   219   171 1
  229   220   170 1
  230   221   169 1
  231   222   140 1
  232   223   167 1
  233   224   166 1
  234   225   165 1
  235   226   163 1
  236   227   161 1
  237   228   139 1
  238   229   139 1
  239   230   153 1
  240   231   152 1
  241   232   150 1
  242   233   149 1
  243   234   148 1
  244   235   162 1
  245   65    153 1
  246   65    174 1
@<TRIPOS>SUBSTRUCTURE
      1 CLA               1 ****               0 ****  **** 
      2 LUT             138 ****               0 ****  **** 
