@<TRIPOS>MOLECULE
Cpptraj generated mol2 file.
  235   246     2     0     0
SMALL
USER_CHARGES


@<TRIPOS>ATOM
      1 CAA        79.2975   57.6859   35.0039 a2         1 CLA     -0.055900
      2 CAB        78.8930   62.1400   43.5560 c8         1 CLA     -0.148500
      3 CAC        72.1736   57.4192   43.2306 a2         1 CLA     -0.012600
      4 CAD        74.8879   55.2280   36.0491 ck         1 CLA      0.398800
      5 NA         78.1096   58.2547   38.2282 ns         1 CLA     -0.225500
      6 CBA        80.5856   57.4661   34.1885 a2         1 CLA     -0.135000
      7 CBB        80.0853   62.5156   44.1545 c0         1 CLA     -0.395200
      8 CBC        72.3951   55.9472   43.4993 a3         1 CLA     -0.037700
      9 CBD        76.4404   55.5577   35.8505 a1         1 CLA     -0.053900
     10 NB         77.7246   60.0486   40.6413 nm         1 CLA     -0.295700
     11 OBD        74.2463   54.4359   35.3304 o2         1 CLA     -0.494600
     12 CGA        81.0353   56.0314   33.9473 c4         1 CLA      0.827000
     13 CGD        77.3825   54.3343   35.8806 c4         1 CLA      0.655300
     14 ND         75.3244   57.2403   38.8885 nm         1 CLA     -0.291600
     15 CED        78.1377   52.5950   37.3980 a3         1 CLA      0.005400
     16 CHA        76.7896   56.6012   36.9776 cs         1 CLA     -0.123800
     17 CHB        79.7615   59.6216   39.2227 aa         1 CLA     -0.291900
     18 CHC        76.4619   60.2321   42.6831 aa         1 CLA     -0.090400
     19 CHD        73.3927   57.1920   40.3973 aa         1 CLA     -0.052000
     20 CMA        81.6933   57.6064   37.9088 a3         1 CLA     -0.230700
     21 CMB        81.0180   61.9128   41.0261 a3         1 CLA     -0.180800
     22 CMC        73.9759   59.5769   44.7967 a3         1 CLA     -0.134000
     23 CMD        71.9713   55.5639   38.0060 a3         1 CLA     -0.141100
     24 C1         82.1086   54.0066   34.9516 a2         1 CLA      0.023000
     25 C1A        78.0618   57.3871   37.2523 ac         1 CLA     -0.015100
     26 C1B        79.0713   60.2261   40.2768 cr         1 CLA      0.054700
     27 C1C        75.3342   59.4101   42.4695 cn         1 CLA     -0.005600
     28 C1D        73.9705   56.8879   39.1812 ap         1 CLA     -0.047300
     29 O1A        80.6339   55.3280   33.0485 o2         1 CLA     -0.610800
     30 O1D        78.2323   53.9550   35.0769 o2         1 CLA     -0.558200
     31 C2         83.1479   53.9933   36.0710 c8         1 CLA     -0.325100
     32 C2A        79.4029   57.3488   36.4566 a1         1 CLA      0.098600
     33 C2B        79.6359   61.3248   41.1686 cb         1 CLA      0.088500
     34 C2C        74.2736   59.0336   43.4064 cb         1 CLA      0.053700
     35 C2D        73.3860   56.0955   38.0964 cb         1 CLA      0.058900
     36 O2A        81.8211   55.4451   34.9657 o1         1 CLA     -0.437200
     37 O2D        77.2934   53.7166   37.1087 o1         1 CLA     -0.357600
     38 C3         84.4946   53.9615   36.0242 c5         1 CLA      0.031200
     39 C3A        80.3288   58.1767   37.2911 a1         1 CLA      0.166800
     40 C3B        78.7162   61.4399   42.2121 cb         1 CLA      0.035000
     41 C3C        73.4092   58.1423   42.7156 cb         1 CLA     -0.089900
     42 C3D        74.5429   55.9044   37.2490 cb         1 CLA     -0.035900
     43 C4         85.2453   52.6321   36.3103 a3         1 CLA     -0.053300
     44 C4A        79.3616   58.7073   38.3141 ac         1 CLA      0.001800
     45 C4B        77.5507   60.6274   41.8908 cn         1 CLA     -0.020900
     46 C4C        73.9312   58.0498   41.3955 cr         1 CLA     -0.044400
     47 C4D        75.6284   56.6564   37.7384 c6         1 CLA     -0.046000
     48 C5         85.2327   55.2448   35.9659 a2         1 CLA     -0.070400
     49 C6         85.3765   55.9676   37.3717 a2         1 CLA      0.043900
     50 C7         86.0145   57.3508   37.3399 a2         1 CLA     -0.150000
     51 C8         87.4521   57.4365   37.6514 a1         1 CLA      0.064200
     52 C9         88.3813   56.5807   36.7400 a3         1 CLA     -0.259300
     53 C10        87.6764   57.0344   39.2021 a2         1 CLA     -0.071900
     54 C11        87.4271   58.2162   40.2596 a2         1 CLA      0.014500
     55 C12        87.4531   57.6197   41.6661 a2         1 CLA     -0.112100
     56 C13        86.8313   58.5576   42.7650 a1         1 CLA      0.089200
     57 C14        87.6142   59.9226   42.7881 a3         1 CLA     -0.239100
     58 C15        86.9622   57.7812   44.1170 a2         1 CLA     -0.102200
     59 C16        86.6106   58.4194   45.4550 a2         1 CLA      0.023900
     60 C17        85.2117   59.0679   45.3962 a2         1 CLA     -0.105700
     61 C18        84.5730   59.1392   46.7898 a1         1 CLA      0.206800
     62 C19        85.2805   60.3417   47.4955 a3         1 CLA     -0.280100
     63 C20        83.0871   59.4397   46.5572 a3         1 CLA     -0.280100
     64 NC         75.1175   58.7687   41.2885 nx         1 CLA     -0.309200
     65 MG         76.4565   58.7051   39.6816 mg         1 CLA      0.895000
     66 HMD3       72.0863   54.6867   37.3359 dc         1 CLA      0.064300
     67 HMD2       71.6926   55.2663   39.0337 dc         1 CLA      0.064300
     68 HMD1       71.3148   56.3049   37.4334 dc         1 CLA      0.064300
     69 HMC3       73.5842   60.5988   44.7621 dc         1 CLA      0.052100
     70 HMC2       73.3747   58.8977   45.3908 dc         1 CLA      0.052100
     71 HMC1       74.9432   59.5432   45.3376 dc         1 CLA      0.052100
     72 HMB3       81.0856   62.8806   41.6131 dc         1 CLA      0.063600
     73 HMB2       81.8253   61.2222   41.3979 dc         1 CLA      0.063600
     74 HMB1       81.1288   62.1710   39.9852 dc         1 CLA      0.063600
     75 HMA3       82.3728   58.3637   38.1603 dc         1 CLA      0.058300
     76 HMA2       81.4672   56.8277   38.6435 dc         1 CLA      0.058300
     77 HMA1       82.0794   57.0472   37.0147 dc         1 CLA      0.058300
     78 HED3       79.1888   52.9850   37.4526 dc         1 CLA      0.079300
     79 HED2       77.7489   52.0165   38.2533 dc         1 CLA      0.079300
     80 HED1       78.0740   51.9236   36.5145 dc         1 CLA      0.079300
     81 HBC3       73.2109   55.6755   44.1425 dc         1 CLA      0.016300
     82 HBC2       71.5717   55.4750   43.9848 dc         1 CLA      0.016300
     83 HBC1       72.4565   55.3703   42.5673 dc         1 CLA      0.016300
     84 HBB2       80.1368   62.8417   45.2502 da         1 CLA      0.183000
     85 HBB1       81.1125   62.3163   43.7626 da         1 CLA      0.183000
     86 HBA2       80.3887   57.9933   33.2803 dc         1 CLA      0.029400
     87 HBA1       81.3905   58.0790   34.5741 dc         1 CLA      0.029400
     88 HAC2       71.8434   57.9475   44.1272 dc         1 CLA      0.029300
     89 HAC1       71.3322   57.5158   42.5011 dc         1 CLA      0.029300
     90 HAA2       78.5669   57.0536   34.5652 dc         1 CLA      0.028700
     91 HAA1       78.9627   58.7483   34.9430 dc         1 CLA      0.028700
     92 H203       82.9344   60.2265   45.8618 dc         1 CLA      0.065600
     93 H202       82.5197   58.5253   46.2765 dc         1 CLA      0.065600
     94 H201       82.7771   59.8988   47.4624 dc         1 CLA      0.065600
     95 H193       85.0786   61.2455   46.9655 dc         1 CLA      0.065600
     96 H192       84.8510   60.5221   48.4444 dc         1 CLA      0.065600
     97 H191       86.3301   60.1780   47.6029 dc         1 CLA      0.065600
     98 H172       85.2048   60.0803   44.9205 dc         1 CLA      0.027600
     99 H171       84.6107   58.5655   44.6290 dc         1 CLA      0.027600
    100 H162       86.6569   57.6141   46.1585 dc         1 CLA      0.002900
    101 H161       87.2722   59.2185   45.7509 dc         1 CLA      0.002900
    102 H152       86.3731   56.8880   44.0260 dc         1 CLA      0.029100
    103 H151       87.9670   57.3705   44.1025 dc         1 CLA      0.029100
    104 H143       88.6777   59.8883   43.0480 dc         1 CLA      0.063600
    105 H142       87.4332   60.4338   41.8843 dc         1 CLA      0.063600
    106 H141       87.0873   60.4319   43.5934 dc         1 CLA      0.063600
    107 H122       86.8926   56.6792   41.5815 dc         1 CLA      0.032500
    108 H121       88.4662   57.3511   41.9120 dc         1 CLA      0.032500
    109 H112       88.1147   59.0693   40.0606 dc         1 CLA      0.006600
    110 H111       86.4182   58.5400   40.0949 dc         1 CLA      0.006600
    111 H102       87.0436   56.1556   39.4466 dc         1 CLA      0.024100
    112 H101       88.7351   56.8006   39.3804 dc         1 CLA      0.024100
    113 HHD        72.5735   56.5190   40.5725 da         1 CLA      0.174300
    114 HHC        76.3725   60.8434   43.5983 da         1 CLA      0.136800
    115 HHB        80.8524   59.8395   39.1954 da         1 CLA      0.138300
    116 HBD        76.6408   56.0437   34.9282 dc         1 CLA      0.107700
    117 HAB        77.9635   62.3285   44.0925 da         1 CLA      0.155200
    118 H93        88.1676   56.8617   35.7240 dc         1 CLA      0.069500
    119 H92        89.4240   56.9443   36.7547 dc         1 CLA      0.069500
    120 H91        88.1527   55.4992   36.9010 dc         1 CLA      0.069500
    121 H8         87.7983   58.4343   37.4037 dc         1 CLA      0.029300
    122 H72        85.9283   57.7007   36.3173 dc         1 CLA      0.044400
    123 H71        85.5018   57.9955   38.0082 dc         1 CLA      0.044400
    124 H62        84.3694   56.1585   37.6547 dc         1 CLA      0.015600
    125 H61        85.7764   55.2275   38.1422 dc         1 CLA      0.015600
    126 H52        86.1995   55.0990   35.5565 dc         1 CLA      0.033200
    127 H51        84.7022   55.8671   35.1631 dc         1 CLA      0.033200
    128 H43        85.4642   52.0352   35.3724 dc         1 CLA      0.037000
    129 H42        86.2047   52.8232   36.7299 dc         1 CLA      0.037000
    130 H41        84.6753   51.9918   36.9997 dc         1 CLA      0.037000
    131 H3A        80.5337   59.0746   36.7040 dc         1 CLA      0.041100
    132 H2A        79.6903   56.2856   36.6307 dc         1 CLA      0.083100
    133 H2         82.7761   54.1659   37.0936 da         1 CLA      0.180900
    134 H18        84.7216   58.1641   47.2423 dc         1 CLA     -0.003900
    135 H13        85.8068   58.8568   42.6123 dc         1 CLA      0.019700
    136 H12        81.2899   53.2835   35.1587 dc         1 CLA      0.120400
    137 H11        82.6168   53.7597   34.0428 dc         1 CLA      0.120400
    138 C1         69.5962   61.8258   51.1544 Z1         2 LUT      0.509236
    139 C2         68.1821   61.5489   51.6310 Z2         2 LUT     -0.434695
    140 C3         67.3567   62.7575   51.9751 Z3         2 LUT      0.437453
    141 O3         67.2197   63.1112   53.3554 S1         2 LUT     -0.547129
    142 C4         67.6288   63.9753   51.1231 Z4         2 LUT     -0.468603
    143 C5         68.3162   63.7140   49.8483 Z5         2 LUT      0.279246
    144 C6         69.2660   62.6759   49.8913 Z6         2 LUT     -0.305473
    145 C7         69.9468   62.2641   48.6150 Z7         2 LUT      0.069402
    146 C8         70.5447   62.9846   47.6656 Z8         2 LUT     -0.191631
    147 C9         71.1360   62.5813   46.3999 Z9         2 LUT      0.196698
    148 C10        72.2269   63.2745   45.8300 Y1         2 LUT     -0.208611
    149 C11        72.8909   63.1488   44.5801 Y2         2 LUT      0.030784
    150 C12        74.0529   63.7372   44.1252 Y3         2 LUT     -0.220316
    151 C13        74.7548   63.7156   42.8862 Y4         2 LUT      0.215937
    152 C14        75.9262   64.4764   42.9144 Y5         2 LUT     -0.185793
    153 C15        76.9819   64.4576   41.9231 Y6         2 LUT     -0.057835
    154 C16        70.3325   60.4138   50.9698 Y7         2 LUT     -0.405615
    155 C17        70.4176   62.4811   52.2083 Y7         2 LUT     -0.405615
    156 C18        68.0010   64.7223   48.8450 Y9         2 LUT     -0.369639
    157 C19        70.5694   61.3285   45.7522 W1         2 LUT     -0.333362
    158 C20        74.2987   62.8751   41.7140 W2         2 LUT     -0.323439
    159 C21        88.0384   64.9640   35.3336 Z1         2 LUT      0.406104
    160 C22        88.8581   64.4310   34.1515 Z2         2 LUT     -0.404965
    161 C23        89.0176   65.3047   32.8696 Z3         2 LUT      0.391255
    162 O23        89.1157   64.4628   31.7048 S1         2 LUT     -0.528210
    163 C24        87.7592   66.1090   32.5657 W6         2 LUT     -0.258361
    164 C25        86.6858   66.1860   33.3251 Z5         2 LUT      0.133546
    165 C26        86.6565   65.4646   34.7020 W8         2 LUT     -0.147008
    166 C27        85.8092   66.3974   35.6451 Z7         2 LUT      0.023843
    167 C28        84.7494   65.9377   36.2843 Z8         2 LUT     -0.216987
    168 C29        84.2180   66.4153   37.5549 Z9         2 LUT      0.206524
    169 C30        83.0782   65.8169   38.1046 Y1         2 LUT     -0.215556
    170 C31        82.3312   66.0483   39.2394 Y2         2 LUT      0.025142
    171 C32        81.1851   65.3545   39.6281 Y3         2 LUT     -0.212209
    172 C33        80.3002   65.7454   40.6792 Y4         2 LUT      0.240937
    173 C34        79.1369   65.1229   40.9219 Y5         2 LUT     -0.218862
    174 C35        78.1253   65.1708   41.9294 Y6         2 LUT     -0.023547
    175 C36        88.7983   66.1789   35.9333 Y7         2 LUT     -0.393485
    176 C37        87.9017   63.8913   36.3354 Y7         2 LUT     -0.393485
    177 C38        85.4258   66.7591   32.8541 Y9         2 LUT     -0.387526
    178 C39        84.8927   67.5114   38.3039 W1         2 LUT     -0.322618
    179 C40        80.9007   66.6031   41.8115 W2         2 LUT     -0.358472
    180 H403       80.3153   66.5396   42.7122 R7         2 LUT      0.097720
    181 H402       81.8808   66.3401   42.0698 R7         2 LUT      0.097720
    182 H401       80.9615   67.6479   41.5681 R7         2 LUT      0.097720
    183 H393       84.0950   68.0850   38.8347 R4         2 LUT      0.082505
    184 H392       85.6171   67.1157   38.9949 R4         2 LUT      0.082505
    185 H391       85.3295   68.2369   37.6407 R4         2 LUT      0.082505
    186 H383       85.3022   67.8295   33.0753 R1         2 LUT      0.104030
    187 H382       85.2639   66.7873   31.7963 R1         2 LUT      0.104030
    188 H381       84.5014   66.1385   33.1130 R1         2 LUT      0.104030
    189 H373       87.4279   62.9111   36.0170 T4         2 LUT      0.089537
    190 H372       88.8468   63.4742   36.7758 T4         2 LUT      0.089537
    191 H371       87.3366   64.2037   37.2406 T4         2 LUT      0.089537
    192 H363       89.8714   65.9744   36.1930 T4         2 LUT      0.089537
    193 H362       88.8330   67.0205   35.2247 T4         2 LUT      0.089537
    194 H361       88.4252   66.5098   36.9144 T4         2 LUT      0.089537
    195 H222       89.8498   64.0411   34.4890 U2         2 LUT      0.127376
    196 H221       88.2049   63.5994   33.7073 U2         2 LUT      0.127376
    197 H203       73.9844   63.4460   40.8899 R7         2 LUT      0.087068
    198 H202       75.1636   62.3609   41.3292 R7         2 LUT      0.087068
    199 H201       73.5807   62.0652   41.9336 R7         2 LUT      0.087068
    200 H193       69.4900   61.4229   45.4818 R4         2 LUT      0.089716
    201 H192       71.1001   60.9662   44.8746 R4         2 LUT      0.089716
    202 H191       70.6512   60.5293   46.4890 R4         2 LUT      0.089716
    203 H183       68.2148   65.6818   49.1675 R1         2 LUT      0.094572
    204 H182       68.4791   64.5803   47.8656 R1         2 LUT      0.094572
    205 H181       66.9607   64.4790   48.7107 R1         2 LUT      0.094572
    206 H173       70.1157   63.5170   52.3904 T4         2 LUT      0.093752
    207 H172       70.6548   61.9881   53.1843 T4         2 LUT      0.093752
    208 H171       71.3890   62.6662   51.8700 T4         2 LUT      0.093752
    209 H163       71.4085   60.4827   50.7152 T4         2 LUT      0.093752
    210 H162       70.2688   59.7397   51.7738 T4         2 LUT      0.093752
    211 H161       69.8764   59.8545   50.1093 T4         2 LUT      0.093752
    212 HO3        66.7413   62.4519   53.8699 Q1         2 LUT      0.300121
    213 H8         70.6723   63.9762   48.0011 U7         2 LUT      0.080784
    214 H7         69.8570   61.2227   48.3478 U6         2 LUT      0.042190
    215 H42        66.7927   64.6028   50.9528 U5         2 LUT      0.145166
    216 H41        68.2871   64.5952   51.6885 U5         2 LUT      0.145166
    217 H35        78.2156   65.7705   42.8090 T3         2 LUT      0.077919
    218 H34        78.9216   64.3260   40.1742 T2         2 LUT      0.073626
    219 H32        80.7612   64.5246   39.0316 T1         2 LUT      0.092510
    220 H31        82.6881   66.8810   39.8756 U9         2 LUT      0.070048
    221 H30        82.5617   65.0857   37.4908 U8         2 LUT      0.085442
    222 H3         66.3503   62.4274   51.8031 U3         2 LUT     -0.031596
    223 H28        84.3902   64.9925   35.8065 U7         2 LUT      0.084728
    224 H27        86.2766   67.2874   35.9583 U6         2 LUT      0.087291
    225 H26        86.0694   64.5041   34.5068 Q6         2 LUT      0.075325
    226 H24        87.7144   66.4857   31.5397 Q5         2 LUT      0.094482
    227 H23        89.8014   66.0353   33.0996 U3         2 LUT     -0.024869
    228 H22        67.5708   61.0523   50.9341 U2         2 LUT      0.127376
    229 H21        68.3115   61.0002   52.5541 U2         2 LUT      0.127376
    230 H15        76.8759   63.8512   40.9384 T3         2 LUT      0.093200
    231 H14        76.1121   64.9347   43.8538 T2         2 LUT      0.068865
    232 H12        74.3595   64.3899   44.9042 T1         2 LUT      0.095507
    233 H11        72.3026   62.6508   43.8943 U9         2 LUT      0.068930
    234 H10        72.4880   64.1518   46.3932 U8         2 LUT      0.083911
    235 H1         89.9672   64.4628   31.2904 Q1         2 LUT      0.297311
@<TRIPOS>BOND
    1     6     1 1
    2     7     2 1
    3     8     3 1
    4     9     4 1
    5    11     4 1
    6    12     6 1
    7    13     9 1
    8    16     9 1
    9    25     5 1
   10    25    16 1
   11    26    10 1
   12    26    17 1
   13    27    18 1
   14    28    14 1
   15    28    19 1
   16    29    12 1
   17    30    13 1
   18    31    24 1
   19    32     1 1
   20    32    25 1
   21    33    21 1
   22    33    26 1
   23    34    22 1
   24    34    27 1
   25    35    23 1
   26    35    28 1
   27    36    12 1
   28    36    24 1
   29    37    13 1
   30    37    15 1
   31    38    31 1
   32    39    20 1
   33    39    32 1
   34    40     2 1
   35    40    33 1
   36    41     3 1
   37    41    34 1
   38    42     4 1
   39    42    35 1
   40    43    38 1
   41    44     5 1
   42    44    17 1
   43    44    39 1
   44    45    10 1
   45    45    18 1
   46    45    40 1
   47    46    19 1
   48    46    41 1
   49    47    14 1
   50    47    16 1
   51    47    42 1
   52    48    38 1
   53    49    48 1
   54    50    49 1
   55    51    50 1
   56    52    51 1
   57    53    51 1
   58    54    53 1
   59    55    54 1
   60    56    55 1
   61    57    56 1
   62    58    56 1
   63    59    58 1
   64    60    59 1
   65    61    60 1
   66    62    61 1
   67    63    61 1
   68    64    27 1
   69    64    46 1
   70    65     5 1
   71    65    10 1
   72    65    64 1
   73    65    14 1
   74    66    23 1
   75    67    23 1
   76    68    23 1
   77    69    22 1
   78    70    22 1
   79    71    22 1
   80    72    21 1
   81    73    21 1
   82    74    21 1
   83    75    20 1
   84    76    20 1
   85    77    20 1
   86    78    15 1
   87    79    15 1
   88    80    15 1
   89    81     8 1
   90    82     8 1
   91    83     8 1
   92    84     7 1
   93    85     7 1
   94    86     6 1
   95    87     6 1
   96    88     3 1
   97    89     3 1
   98    90     1 1
   99    91     1 1
  100    92    63 1
  101    93    63 1
  102    94    63 1
  103    95    62 1
  104    96    62 1
  105    97    62 1
  106    98    60 1
  107    99    60 1
  108   100    59 1
  109   101    59 1
  110   102    58 1
  111   103    58 1
  112   104    57 1
  113   105    57 1
  114   106    57 1
  115   107    55 1
  116   108    55 1
  117   109    54 1
  118   110    54 1
  119   111    53 1
  120   112    53 1
  121   113    19 1
  122   114    18 1
  123   115    17 1
  124   116     9 1
  125   117     2 1
  126   118    52 1
  127   119    52 1
  128   120    52 1
  129   121    51 1
  130   122    50 1
  131   123    50 1
  132   124    49 1
  133   125    49 1
  134   126    48 1
  135   127    48 1
  136   128    43 1
  137   129    43 1
  138   130    43 1
  139   131    39 1
  140   132    32 1
  141   133    31 1
  142   134    61 1
  143   135    56 1
  144   136    24 1
  145   137    24 1
  146   139   138 1
  147   140   139 1
  148   141   140 1
  149   142   140 1
  150   143   142 1
  151   144   138 1
  152   144   143 1
  153   145   144 1
  154   146   145 1
  155   147   146 1
  156   148   147 1
  157   149   148 1
  158   150   149 1
  159   151   150 1
  160   152   151 1
  161   153   152 1
  162   154   138 1
  163   155   138 1
  164   156   143 1
  165   157   147 1
  166   158   151 1
  167   160   159 1
  168   161   160 1
  169   162   161 1
  170   163   161 1
  171   164   163 1
  172   165   159 1
  173   165   164 1
  174   166   165 1
  175   167   166 1
  176   168   167 1
  177   169   168 1
  178   170   169 1
  179   171   170 1
  180   172   171 1
  181   173   172 1
  182   174   153 1
  183   174   173 1
  184   175   159 1
  185   176   159 1
  186   177   164 1
  187   178   168 1
  188   179   172 1
  189   180   179 1
  190   181   179 1
  191   182   179 1
  192   183   178 1
  193   184   178 1
  194   185   178 1
  195   186   177 1
  196   187   177 1
  197   188   177 1
  198   189   176 1
  199   190   176 1
  200   191   176 1
  201   192   175 1
  202   193   175 1
  203   194   175 1
  204   195   160 1
  205   196   160 1
  206   197   158 1
  207   198   158 1
  208   199   158 1
  209   200   157 1
  210   201   157 1
  211   202   157 1
  212   203   156 1
  213   204   156 1
  214   205   156 1
  215   206   155 1
  216   207   155 1
  217   208   155 1
  218   209   154 1
  219   210   154 1
  220   211   154 1
  221   212   141 1
  222   213   146 1
  223   214   145 1
  224   215   142 1
  225   216   142 1
  226   217   174 1
  227   218   173 1
  228   219   171 1
  229   220   170 1
  230   221   169 1
  231   222   140 1
  232   223   167 1
  233   224   166 1
  234   225   165 1
  235   226   163 1
  236   227   161 1
  237   228   139 1
  238   229   139 1
  239   230   153 1
  240   231   152 1
  241   232   150 1
  242   233   149 1
  243   234   148 1
  244   235   162 1
  245   65    153 1
  246   65    174 1
@<TRIPOS>SUBSTRUCTURE
      1 CLA               1 ****               0 ****  **** 
      2 LUT             138 ****               0 ****  **** 
