@<TRIPOS>MOLECULE
Cpptraj generated mol2 file.
  235   246     2     0     0
SMALL
USER_CHARGES


@<TRIPOS>ATOM
      1 CAA        77.6010   58.7143   35.6564 a2         1 CLA     -0.055900
      2 CAB        77.7772   61.9881   44.7520 c8         1 CLA     -0.148500
      3 CAC        70.5820   58.3514   43.9733 a2         1 CLA     -0.012600
      4 CAD        73.4436   55.9557   36.7081 ck         1 CLA      0.398800
      5 NA         76.5844   59.1471   39.0308 ns         1 CLA     -0.225500
      6 CBA        78.8002   58.6585   34.7756 a2         1 CLA     -0.135000
      7 CBB        76.8840   62.6028   45.5846 c0         1 CLA     -0.395200
      8 CBC        70.3815   56.8515   43.8303 a3         1 CLA     -0.037700
      9 CBD        74.9123   56.6022   36.4638 a1         1 CLA     -0.053900
     10 NB         76.4730   60.4052   41.7002 nm         1 CLA     -0.295700
     11 OBD        72.8516   55.0732   36.0745 o2         1 CLA     -0.494600
     12 CGA        79.3568   57.3755   34.3204 c4         1 CLA      0.827000
     13 CGD        75.9298   55.4682   36.0766 c4         1 CLA      0.655300
     14 ND         73.7518   58.3446   39.4709 nm         1 CLA     -0.291600
     15 CED        76.8758   53.3537   36.6802 a3         1 CLA      0.005400
     16 CHA        75.2841   57.5872   37.6114 cs         1 CLA     -0.123800
     17 CHB        78.4110   60.3564   40.1370 aa         1 CLA     -0.291900
     18 CHC        75.2705   60.2248   43.8078 aa         1 CLA     -0.090400
     19 CHD        71.8285   58.1283   41.0170 aa         1 CLA     -0.052000
     20 CMA        80.0100   58.3538   38.4468 a3         1 CLA     -0.230700
     21 CMB        79.8656   61.9336   42.2694 a3         1 CLA     -0.180800
     22 CMC        72.9807   59.8080   45.8115 a3         1 CLA     -0.134000
     23 CMD        70.7201   56.1706   38.7859 a3         1 CLA     -0.141100
     24 C1         80.7310   55.4569   34.8788 a2         1 CLA      0.023000
     25 C1A        76.4877   58.3307   37.8620 ac         1 CLA     -0.015100
     26 C1B        77.7791   60.7751   41.3201 cr         1 CLA      0.054700
     27 C1C        74.0494   59.6653   43.3898 cn         1 CLA     -0.005600
     28 C1D        72.4733   57.8694   39.8308 ap         1 CLA     -0.047300
     29 O1A        79.1702   57.0198   33.1695 o2         1 CLA     -0.610800
     30 O1D        76.5917   55.4347   35.0392 o2         1 CLA     -0.558200
     31 C2         81.0770   54.6567   36.0993 c8         1 CLA     -0.325100
     32 C2A        77.7841   58.2212   37.0864 a1         1 CLA      0.098600
     33 C2B        78.4268   61.4250   42.4029 cb         1 CLA      0.088500
     34 C2C        72.9509   59.3954   44.3297 cb         1 CLA      0.053700
     35 C2D        72.0430   56.8950   38.8533 cb         1 CLA      0.058900
     36 O2A        80.1081   56.6807   35.2582 o1         1 CLA     -0.437200
     37 O2D        76.0265   54.4919   37.0108 o1         1 CLA     -0.357600
     38 C3         82.3208   54.4783   36.5744 c5         1 CLA      0.031200
     39 C3A        78.7451   59.0919   37.9234 a1         1 CLA      0.166800
     40 C3B        77.5341   61.3997   43.4970 cb         1 CLA      0.035000
     41 C3C        71.9411   58.7748   43.4969 cb         1 CLA     -0.089900
     42 C3D        73.0640   56.7939   37.8977 cb         1 CLA     -0.035900
     43 C4         83.1060   53.2573   36.0646 a3         1 CLA     -0.053300
     44 C4A        77.8865   59.5619   39.1236 ac         1 CLA      0.001800
     45 C4B        76.3418   60.5940   43.0690 cn         1 CLA     -0.020900
     46 C4C        72.4798   58.6956   42.1126 cr         1 CLA     -0.044400
     47 C4D        74.0856   57.6537   38.3602 c6         1 CLA     -0.046000
     48 C5         82.8132   55.4436   37.6910 a2         1 CLA     -0.070400
     49 C6         83.8455   54.9966   38.6661 a2         1 CLA      0.043900
     50 C7         83.8833   55.9138   39.8910 a2         1 CLA     -0.150000
     51 C8         83.8718   57.4778   39.7243 a1         1 CLA      0.064200
     52 C9         84.9558   57.9966   38.8329 a3         1 CLA     -0.259300
     53 C10        83.8110   58.2315   41.1080 a2         1 CLA     -0.071900
     54 C11        82.5775   57.9092   41.9039 a2         1 CLA      0.014500
     55 C12        82.2876   58.9152   42.9704 a2         1 CLA     -0.112100
     56 C13        83.3717   59.1402   44.1189 a1         1 CLA      0.089200
     57 C14        83.3830   57.8910   45.0361 a3         1 CLA     -0.239100
     58 C15        83.0899   60.4315   44.9173 a2         1 CLA     -0.102200
     59 C16        84.0018   60.8682   46.0421 a2         1 CLA      0.023900
     60 C17        83.4641   62.1978   46.5956 a2         1 CLA     -0.105700
     61 C18        84.0211   62.7310   47.9904 a1         1 CLA      0.206800
     62 C19        83.6161   64.1863   48.3144 a3         1 CLA     -0.280100
     63 C20        83.6635   61.8340   49.1659 a3         1 CLA     -0.280100
     64 NC         73.7228   59.3208   42.0695 nx         1 CLA     -0.309200
     65 MG         75.0433   59.5336   40.4559 mg         1 CLA      0.895000
     66 HMD3       69.9746   56.8886   38.4829 dc         1 CLA      0.064300
     67 HMD2       70.7525   55.3736   37.9989 dc         1 CLA      0.064300
     68 HMD1       70.4964   55.7044   39.6994 dc         1 CLA      0.064300
     69 HMC3       73.3156   60.8337   45.9083 dc         1 CLA      0.052100
     70 HMC2       71.9727   59.8469   46.2530 dc         1 CLA      0.052100
     71 HMC1       73.6658   59.2020   46.4201 dc         1 CLA      0.052100
     72 HMB3       80.6196   61.2169   42.0191 dc         1 CLA      0.063600
     73 HMB2       79.8879   62.6370   41.4445 dc         1 CLA      0.063600
     74 HMB1       80.1428   62.3240   43.2130 dc         1 CLA      0.063600
     75 HMA3       79.6977   57.3184   38.8948 dc         1 CLA      0.058300
     76 HMA2       80.6948   58.2033   37.5869 dc         1 CLA      0.058300
     77 HMA1       80.6093   58.9543   39.1446 dc         1 CLA      0.058300
     78 HED3       77.9830   53.5724   36.6221 dc         1 CLA      0.079300
     79 HED2       76.6517   52.6292   37.4849 dc         1 CLA      0.079300
     80 HED1       76.6432   52.8529   35.7082 dc         1 CLA      0.079300
     81 HBC3       71.0301   56.3278   44.5294 dc         1 CLA      0.016300
     82 HBC2       69.3755   56.6177   44.0750 dc         1 CLA      0.016300
     83 HBC1       70.5281   56.4999   42.7942 dc         1 CLA      0.016300
     84 HBB2       77.0222   62.9359   46.6091 da         1 CLA      0.183000
     85 HBB1       75.8777   62.7850   45.2208 da         1 CLA      0.183000
     86 HBA2       78.6114   59.2471   33.8938 dc         1 CLA      0.029400
     87 HBA1       79.6231   59.2276   35.2843 dc         1 CLA      0.029400
     88 HAC2       70.3730   58.6996   44.9585 dc         1 CLA      0.029300
     89 HAC1       69.8438   58.8664   43.3587 dc         1 CLA      0.029300
     90 HAA2       76.8110   58.2059   35.1164 dc         1 CLA      0.028700
     91 HAA1       77.2223   59.6896   35.6788 dc         1 CLA      0.028700
     92 H203       84.1706   62.1705   50.0571 dc         1 CLA      0.065600
     93 H202       82.6454   61.7579   49.2689 dc         1 CLA      0.065600
     94 H201       83.9093   60.7974   48.8272 dc         1 CLA      0.065600
     95 H193       83.8092   64.8789   47.5225 dc         1 CLA      0.065600
     96 H192       82.5855   64.0540   48.4569 dc         1 CLA      0.065600
     97 H191       84.0216   64.5261   49.2848 dc         1 CLA      0.065600
     98 H172       83.8227   62.8944   45.9185 dc         1 CLA      0.027600
     99 H171       82.4188   62.2945   46.4533 dc         1 CLA      0.027600
    100 H162       83.7909   60.1020   46.8586 dc         1 CLA      0.002900
    101 H161       85.0535   60.8866   45.8626 dc         1 CLA      0.002900
    102 H152       83.1808   61.2012   44.1136 dc         1 CLA      0.029100
    103 H151       82.0493   60.3863   45.3401 dc         1 CLA      0.029100
    104 H143       83.4120   57.0000   44.4591 dc         1 CLA      0.063600
    105 H142       84.3327   57.8952   45.6323 dc         1 CLA      0.063600
    106 H141       82.5537   57.8043   45.7484 dc         1 CLA      0.063600
    107 H122       82.1940   59.8990   42.4830 dc         1 CLA      0.032500
    108 H121       81.4265   58.7003   43.5131 dc         1 CLA      0.032500
    109 H112       81.6743   57.7971   41.2565 dc         1 CLA      0.006600
    110 H111       82.6625   56.9670   42.4511 dc         1 CLA      0.006600
    111 H102       84.6382   57.8963   41.6389 dc         1 CLA      0.024100
    112 H101       83.7635   59.2954   40.9424 dc         1 CLA      0.024100
    113 HHD        70.8293   57.7431   41.1640 da         1 CLA      0.174300
    114 HHC        75.2054   60.5311   44.8373 da         1 CLA      0.136800
    115 HHB        79.4503   60.6216   40.0075 da         1 CLA      0.138300
    116 HBD        74.8671   57.2948   35.6302 dc         1 CLA      0.107700
    117 HAB        78.7870   61.9560   45.1750 da         1 CLA      0.155200
    118 H93        84.7909   59.0551   38.9923 dc         1 CLA      0.069500
    119 H92        85.8822   57.6915   39.2730 dc         1 CLA      0.069500
    120 H91        84.8969   57.6803   37.8431 dc         1 CLA      0.069500
    121 H8         82.9515   57.6980   39.1933 dc         1 CLA      0.029300
    122 H72        83.1406   55.6085   40.5922 dc         1 CLA      0.044400
    123 H71        84.8407   55.6793   40.4362 dc         1 CLA      0.044400
    124 H62        83.7297   53.9433   39.0073 dc         1 CLA      0.015600
    125 H61        84.7306   55.1600   38.1403 dc         1 CLA      0.015600
    126 H52        83.1652   56.2822   37.1254 dc         1 CLA      0.033200
    127 H51        81.9269   55.6641   38.3135 dc         1 CLA      0.033200
    128 H43        82.5402   52.7149   35.2921 dc         1 CLA      0.037000
    129 H42        84.0808   53.5199   35.6776 dc         1 CLA      0.037000
    130 H41        83.2098   52.6113   36.9735 dc         1 CLA      0.037000
    131 H3A        79.0863   59.9631   37.3657 dc         1 CLA      0.041100
    132 H2A        78.1806   57.2029   37.0921 dc         1 CLA      0.083100
    133 H2         80.2436   54.0680   36.4702 da         1 CLA      0.180900
    134 H18        85.1528   62.6805   47.9444 dc         1 CLA     -0.003900
    135 H13        84.2829   59.2744   43.6023 dc         1 CLA      0.019700
    136 H12        80.0589   54.8714   34.2864 dc         1 CLA      0.120400
    137 H11        81.5053   55.6044   34.1281 dc         1 CLA      0.120400
    138 C1         66.4126   61.0619   51.2336 Z1         2 LUT      0.509236
    139 C2         66.5240   62.0994   52.3214 Z2         2 LUT     -0.434695
    140 C3         65.2464   63.0674   52.4176 Z3         2 LUT      0.437453
    141 O3         65.6518   64.2345   53.1631 S1         2 LUT     -0.547129
    142 C4         64.6525   63.4134   51.0653 Z4         2 LUT     -0.468603
    143 C5         65.3555   62.9121   49.8237 Z5         2 LUT      0.279246
    144 C6         66.2174   61.8264   49.9054 Z6         2 LUT     -0.305473
    145 C7         67.1653   61.4457   48.8196 Z7         2 LUT      0.069402
    146 C8         68.0669   62.2664   48.1293 Z8         2 LUT     -0.191631
    147 C9         68.7354   61.8843   46.8534 Z9         2 LUT      0.196698
    148 C10        69.7588   62.7143   46.4567 Y1         2 LUT     -0.208611
    149 C11        70.5400   62.5490   45.2122 Y2         2 LUT      0.030784
    150 C12        71.7510   63.1972   44.9802 Y3         2 LUT     -0.220316
    151 C13        72.4716   63.1434   43.6841 Y4         2 LUT      0.215937
    152 C14        73.7512   63.7873   43.6668 Y5         2 LUT     -0.185793
    153 C15        74.7718   63.9256   42.6779 Y6         2 LUT     -0.057835
    154 C16        65.1862   60.1563   51.6188 Y7         2 LUT     -0.405615
    155 C17        67.7271   60.2247   51.2889 Y7         2 LUT     -0.405615
    156 C18        65.2946   63.8135   48.6077 Y9         2 LUT     -0.369639
    157 C19        68.3657   60.5417   46.1866 W1         2 LUT     -0.333362
    158 C20        71.8230   62.5448   42.4868 W2         2 LUT     -0.323439
    159 C21        86.2993   65.9919   36.8610 Z1         2 LUT      0.406104
    160 C22        87.1503   65.6232   35.6861 Z2         2 LUT     -0.404965
    161 C23        87.2769   66.5011   34.4427 Z3         2 LUT      0.391255
    162 O23        87.9270   65.6856   33.4241 S1         2 LUT     -0.528210
    163 C24        85.9631   67.1197   34.1189 W6         2 LUT     -0.258361
    164 C25        84.9118   67.1884   34.9544 Z5         2 LUT      0.133546
    165 C26        84.9014   66.3390   36.2800 W8         2 LUT     -0.147008
    166 C27        84.0457   66.9464   37.3732 Z7         2 LUT      0.023843
    167 C28        82.9499   66.3436   37.7983 Z8         2 LUT     -0.216987
    168 C29        82.0426   66.6901   38.9380 Z9         2 LUT      0.206524
    169 C30        80.9496   65.9331   39.2992 Y1         2 LUT     -0.215556
    170 C31        80.1583   66.1102   40.4474 Y2         2 LUT      0.025142
    171 C32        78.9346   65.4882   40.6139 Y3         2 LUT     -0.212209
    172 C33        77.9871   65.7059   41.7211 Y4         2 LUT      0.240937
    173 C34        76.8575   64.9672   41.7180 Y5         2 LUT     -0.218862
    174 C35        75.8679   64.7504   42.7788 Y6         2 LUT     -0.023547
    175 C36        87.1156   67.1092   37.5287 Y7         2 LUT     -0.393485
    176 C37        86.4783   64.8435   37.8789 Y7         2 LUT     -0.393485
    177 C38        83.6127   67.8557   34.5152 Y9         2 LUT     -0.387526
    178 C39        82.4571   67.8857   39.7717 W1         2 LUT     -0.322618
    179 C40        78.5400   66.5063   42.9419 W2         2 LUT     -0.358472
    180 H403       79.4172   65.9578   43.3432 R7         2 LUT      0.097720
    181 H402       78.8604   67.4864   42.6631 R7         2 LUT      0.097720
    182 H401       77.8361   66.7890   43.6994 R7         2 LUT      0.097720
    183 H393       81.6273   68.3219   40.3575 R4         2 LUT      0.082505
    184 H392       83.2228   67.5133   40.5338 R4         2 LUT      0.082505
    185 H391       82.9159   68.6583   39.2055 R4         2 LUT      0.082505
    186 H383       82.8051   67.5106   35.1028 R1         2 LUT      0.104030
    187 H382       83.5712   69.0074   34.6156 R1         2 LUT      0.104030
    188 H381       83.5361   67.6260   33.4508 R1         2 LUT      0.104030
    189 H373       87.4925   64.5258   37.9557 T4         2 LUT      0.089537
    190 H372       85.8566   64.9993   38.7884 T4         2 LUT      0.089537
    191 H371       86.0314   63.9539   37.4015 T4         2 LUT      0.089537
    192 H363       88.1187   66.6349   37.7049 T4         2 LUT      0.089537
    193 H362       87.2987   67.9972   36.9179 T4         2 LUT      0.089537
    194 H361       86.7252   67.3937   38.5185 T4         2 LUT      0.089537
    195 H222       88.1247   65.3191   36.0146 U2         2 LUT      0.127376
    196 H221       86.7775   64.7341   35.2045 U2         2 LUT      0.127376
    197 H203       72.5464   62.6178   41.6197 R7         2 LUT      0.087068
    198 H202       71.6014   61.5218   42.7754 R7         2 LUT      0.087068
    199 H201       70.9598   63.0556   42.0782 R7         2 LUT      0.087068
    200 H193       68.4389   60.6673   45.0988 R4         2 LUT      0.089716
    201 H192       68.9579   59.7592   46.5470 R4         2 LUT      0.089716
    202 H191       67.3446   60.2013   46.2814 R4         2 LUT      0.089716
    203 H183       65.6094   63.3540   47.6948 R1         2 LUT      0.094572
    204 H182       64.2704   64.2707   48.5023 R1         2 LUT      0.094572
    205 H181       65.9691   64.6329   48.7445 R1         2 LUT      0.094572
    206 H173       68.5653   60.8514   51.0011 T4         2 LUT      0.093752
    207 H172       67.9409   59.8540   52.3504 T4         2 LUT      0.093752
    208 H171       67.7175   59.4554   50.5577 T4         2 LUT      0.093752
    209 H163       65.2471   59.7827   52.6393 T4         2 LUT      0.093752
    210 H162       64.2170   60.6115   51.4111 T4         2 LUT      0.093752
    211 H161       65.2530   59.2427   51.0012 T4         2 LUT      0.093752
    212 HO3        64.9621   64.9365   53.2833 Q1         2 LUT      0.300121
    213 H8         68.2464   63.3294   48.3842 U7         2 LUT      0.080784
    214 H7         67.1670   60.3772   48.5041 U6         2 LUT      0.042190
    215 H42        63.6744   63.0056   50.9732 U5         2 LUT      0.145166
    216 H41        64.3490   64.4872   50.8795 U5         2 LUT      0.145166
    217 H35        76.0135   65.3114   43.6958 T3         2 LUT      0.077919
    218 H34        76.6454   64.4616   40.7328 T2         2 LUT      0.073626
    219 H32        78.5091   64.7181   40.0004 T1         2 LUT      0.092510
    220 H31        80.4572   66.8592   41.1713 U9         2 LUT      0.070048
    221 H30        80.7196   65.0637   38.7445 U8         2 LUT      0.085442
    222 H3         64.3447   62.5205   52.8969 U3         2 LUT     -0.031596
    223 H28        82.6618   65.4289   37.3100 U7         2 LUT      0.084728
    224 H27        84.4260   67.8724   37.8610 U6         2 LUT      0.087291
    225 H26        84.6962   65.2292   36.0238 Q6         2 LUT      0.075325
    226 H24        85.7591   67.5129   33.1331 Q5         2 LUT      0.094482
    227 H23        87.8807   67.3517   34.7439 U3         2 LUT     -0.024869
    228 H22        66.5832   61.5883   53.2669 U2         2 LUT      0.127376
    229 H21        67.3809   62.7403   52.1934 U2         2 LUT      0.127376
    230 H15        74.7031   63.4226   41.7736 T3         2 LUT      0.093200
    231 H14        74.0732   64.1812   44.6314 T2         2 LUT      0.068865
    232 H12        72.2103   63.7902   45.7849 T1         2 LUT      0.095507
    233 H11        70.0476   61.9590   44.4488 U9         2 LUT      0.068930
    234 H10        69.8676   63.6354   47.0149 U8         2 LUT      0.083911
    235 H1         87.3918   65.5516   32.6593 Q1         2 LUT      0.297311
@<TRIPOS>BOND
    1     6     1 1
    2     7     2 1
    3     8     3 1
    4     9     4 1
    5    11     4 1
    6    12     6 1
    7    13     9 1
    8    16     9 1
    9    25     5 1
   10    25    16 1
   11    26    10 1
   12    26    17 1
   13    27    18 1
   14    28    14 1
   15    28    19 1
   16    29    12 1
   17    30    13 1
   18    31    24 1
   19    32     1 1
   20    32    25 1
   21    33    21 1
   22    33    26 1
   23    34    22 1
   24    34    27 1
   25    35    23 1
   26    35    28 1
   27    36    12 1
   28    36    24 1
   29    37    13 1
   30    37    15 1
   31    38    31 1
   32    39    20 1
   33    39    32 1
   34    40     2 1
   35    40    33 1
   36    41     3 1
   37    41    34 1
   38    42     4 1
   39    42    35 1
   40    43    38 1
   41    44     5 1
   42    44    17 1
   43    44    39 1
   44    45    10 1
   45    45    18 1
   46    45    40 1
   47    46    19 1
   48    46    41 1
   49    47    14 1
   50    47    16 1
   51    47    42 1
   52    48    38 1
   53    49    48 1
   54    50    49 1
   55    51    50 1
   56    52    51 1
   57    53    51 1
   58    54    53 1
   59    55    54 1
   60    56    55 1
   61    57    56 1
   62    58    56 1
   63    59    58 1
   64    60    59 1
   65    61    60 1
   66    62    61 1
   67    63    61 1
   68    64    27 1
   69    64    46 1
   70    65     5 1
   71    65    10 1
   72    65    64 1
   73    65    14 1
   74    66    23 1
   75    67    23 1
   76    68    23 1
   77    69    22 1
   78    70    22 1
   79    71    22 1
   80    72    21 1
   81    73    21 1
   82    74    21 1
   83    75    20 1
   84    76    20 1
   85    77    20 1
   86    78    15 1
   87    79    15 1
   88    80    15 1
   89    81     8 1
   90    82     8 1
   91    83     8 1
   92    84     7 1
   93    85     7 1
   94    86     6 1
   95    87     6 1
   96    88     3 1
   97    89     3 1
   98    90     1 1
   99    91     1 1
  100    92    63 1
  101    93    63 1
  102    94    63 1
  103    95    62 1
  104    96    62 1
  105    97    62 1
  106    98    60 1
  107    99    60 1
  108   100    59 1
  109   101    59 1
  110   102    58 1
  111   103    58 1
  112   104    57 1
  113   105    57 1
  114   106    57 1
  115   107    55 1
  116   108    55 1
  117   109    54 1
  118   110    54 1
  119   111    53 1
  120   112    53 1
  121   113    19 1
  122   114    18 1
  123   115    17 1
  124   116     9 1
  125   117     2 1
  126   118    52 1
  127   119    52 1
  128   120    52 1
  129   121    51 1
  130   122    50 1
  131   123    50 1
  132   124    49 1
  133   125    49 1
  134   126    48 1
  135   127    48 1
  136   128    43 1
  137   129    43 1
  138   130    43 1
  139   131    39 1
  140   132    32 1
  141   133    31 1
  142   134    61 1
  143   135    56 1
  144   136    24 1
  145   137    24 1
  146   139   138 1
  147   140   139 1
  148   141   140 1
  149   142   140 1
  150   143   142 1
  151   144   138 1
  152   144   143 1
  153   145   144 1
  154   146   145 1
  155   147   146 1
  156   148   147 1
  157   149   148 1
  158   150   149 1
  159   151   150 1
  160   152   151 1
  161   153   152 1
  162   154   138 1
  163   155   138 1
  164   156   143 1
  165   157   147 1
  166   158   151 1
  167   160   159 1
  168   161   160 1
  169   162   161 1
  170   163   161 1
  171   164   163 1
  172   165   159 1
  173   165   164 1
  174   166   165 1
  175   167   166 1
  176   168   167 1
  177   169   168 1
  178   170   169 1
  179   171   170 1
  180   172   171 1
  181   173   172 1
  182   174   153 1
  183   174   173 1
  184   175   159 1
  185   176   159 1
  186   177   164 1
  187   178   168 1
  188   179   172 1
  189   180   179 1
  190   181   179 1
  191   182   179 1
  192   183   178 1
  193   184   178 1
  194   185   178 1
  195   186   177 1
  196   187   177 1
  197   188   177 1
  198   189   176 1
  199   190   176 1
  200   191   176 1
  201   192   175 1
  202   193   175 1
  203   194   175 1
  204   195   160 1
  205   196   160 1
  206   197   158 1
  207   198   158 1
  208   199   158 1
  209   200   157 1
  210   201   157 1
  211   202   157 1
  212   203   156 1
  213   204   156 1
  214   205   156 1
  215   206   155 1
  216   207   155 1
  217   208   155 1
  218   209   154 1
  219   210   154 1
  220   211   154 1
  221   212   141 1
  222   213   146 1
  223   214   145 1
  224   215   142 1
  225   216   142 1
  226   217   174 1
  227   218   173 1
  228   219   171 1
  229   220   170 1
  230   221   169 1
  231   222   140 1
  232   223   167 1
  233   224   166 1
  234   225   165 1
  235   226   163 1
  236   227   161 1
  237   228   139 1
  238   229   139 1
  239   230   153 1
  240   231   152 1
  241   232   150 1
  242   233   149 1
  243   234   148 1
  244   235   162 1
  245   65    153 1
  246   65    174 1
@<TRIPOS>SUBSTRUCTURE
      1 CLA               1 ****               0 ****  **** 
      2 LUT             138 ****               0 ****  **** 
