@<TRIPOS>MOLECULE
Cpptraj generated mol2 file.
  235   246     2     0     0
SMALL
USER_CHARGES


@<TRIPOS>ATOM
      1 CAA        77.4844   58.3341   33.7097 a2         1 CLA     -0.055900
      2 CAB        77.8131   61.8057   42.8597 c8         1 CLA     -0.148500
      3 CAC        70.9092   57.7452   42.4022 a2         1 CLA     -0.012600
      4 CAD        73.5092   55.6811   34.8230 ck         1 CLA      0.398800
      5 NA         76.6950   58.5232   37.1676 ns         1 CLA     -0.225500
      6 CBA        78.7940   58.2504   32.8688 a2         1 CLA     -0.135000
      7 CBB        77.2970   61.3704   44.0216 c0         1 CLA     -0.395200
      8 CBC        70.6404   56.2265   42.0678 a3         1 CLA     -0.037700
      9 CBD        74.9554   56.1992   34.5426 a1         1 CLA     -0.053900
     10 NB         76.5642   59.9358   39.8239 nm         1 CLA     -0.295700
     11 OBD        72.9240   54.9378   34.0517 o2         1 CLA     -0.494600
     12 CGA        79.2352   56.8115   32.4352 c4         1 CLA      0.827000
     13 CGD        75.8922   55.0864   34.1799 c4         1 CLA      0.655300
     14 ND         73.9922   57.5204   37.7981 nm         1 CLA     -0.291600
     15 CED        76.8397   52.9309   34.7931 a3         1 CLA      0.005400
     16 CHA        75.3512   57.0839   35.7747 cs         1 CLA     -0.123800
     17 CHB        78.4436   59.9826   38.2417 aa         1 CLA     -0.291900
     18 CHC        75.0946   60.3781   41.7606 aa         1 CLA     -0.090400
     19 CHD        72.1742   57.3854   39.3921 aa         1 CLA     -0.052000
     20 CMA        80.0061   57.8663   36.4744 a3         1 CLA     -0.230700
     21 CMB        79.8109   61.6819   40.4476 a3         1 CLA     -0.180800
     22 CMC        73.0664   59.5923   43.8348 a3         1 CLA     -0.134000
     23 CMD        70.8687   55.4103   37.3770 a3         1 CLA     -0.141100
     24 C1         80.0885   54.7400   33.2788 a2         1 CLA      0.023000
     25 C1A        76.5571   57.7721   36.0390 ac         1 CLA     -0.015100
     26 C1B        77.8074   60.3217   39.4276 cr         1 CLA      0.054700
     27 C1C        73.9839   59.5872   41.5121 cn         1 CLA     -0.005600
     28 C1D        72.7768   57.0112   38.1196 ap         1 CLA     -0.047300
     29 O1A        79.0465   56.2180   31.4146 o2         1 CLA     -0.610800
     30 O1D        76.4633   55.0252   33.1384 o2         1 CLA     -0.558200
     31 C2         80.5954   54.3250   34.6601 c8         1 CLA     -0.325100
     32 C2A        77.8005   57.8511   35.1506 a1         1 CLA      0.098600
     33 C2B        78.4657   61.0870   40.4769 cb         1 CLA      0.088500
     34 C2C        73.0098   59.2205   42.4140 cb         1 CLA      0.053700
     35 C2D        72.1981   56.1498   37.0989 cb         1 CLA      0.058900
     36 O2A        79.7519   56.1632   33.4510 o1         1 CLA     -0.437200
     37 O2D        75.9887   54.0786   35.0825 o1         1 CLA     -0.357600
     38 C3         81.4017   53.3096   34.8415 c5         1 CLA      0.031200
     39 C3A        78.7947   58.7621   36.0452 a1         1 CLA      0.166800
     40 C3B        77.5840   61.1291   41.5348 cb         1 CLA      0.035000
     41 C3C        72.1697   58.3841   41.7378 cb         1 CLA     -0.089900
     42 C3D        73.1733   56.1966   36.1218 cb         1 CLA     -0.035900
     43 C4         80.9574   51.9054   35.3735 a3         1 CLA     -0.053300
     44 C4A        77.9221   59.1943   37.2009 ac         1 CLA      0.001800
     45 C4B        76.3341   60.4914   41.0476 cn         1 CLA     -0.020900
     46 C4C        72.6713   58.2107   40.3959 cr         1 CLA     -0.044400
     47 C4D        74.2480   57.0707   36.5672 c6         1 CLA     -0.046000
     48 C5         82.8662   53.4692   34.5441 a2         1 CLA     -0.070400
     49 C6         83.6407   54.7546   34.9121 a2         1 CLA      0.043900
     50 C7         83.9018   54.9296   36.4154 a2         1 CLA     -0.150000
     51 C8         84.6881   56.1773   36.7671 a1         1 CLA      0.064200
     52 C9         86.1337   56.1896   36.2561 a3         1 CLA     -0.259300
     53 C10        84.6753   56.3984   38.3177 a2         1 CLA     -0.071900
     54 C11        83.2396   56.4182   38.8739 a2         1 CLA      0.014500
     55 C12        83.1252   56.8529   40.3610 a2         1 CLA     -0.112100
     56 C13        81.6040   56.7979   40.9570 a1         1 CLA      0.089200
     57 C14        80.6254   57.8034   40.2588 a3         1 CLA     -0.239100
     58 C15        81.7016   57.1265   42.4894 a2         1 CLA     -0.102200
     59 C16        81.9876   58.5498   43.0116 a2         1 CLA      0.023900
     60 C17        82.2434   58.5548   44.5262 a2         1 CLA     -0.105700
     61 C18        82.5796   59.8604   45.2538 a1         1 CLA      0.206800
     62 C19        83.8577   60.5704   44.8363 a3         1 CLA     -0.280100
     63 C20        81.3766   60.8136   45.2759 a3         1 CLA     -0.280100
     64 NC         73.8225   58.9116   40.2730 nx         1 CLA     -0.309200
     65 MG         75.2068   58.9208   38.6591 mg         1 CLA      0.895000
     66 HMD3       70.9640   54.4982   36.7293 dc         1 CLA      0.064300
     67 HMD2       70.7460   55.0038   38.3691 dc         1 CLA      0.064300
     68 HMD1       70.0816   56.1084   37.1096 dc         1 CLA      0.064300
     69 HMC3       73.8965   59.0489   44.4182 dc         1 CLA      0.052100
     70 HMC2       73.1401   60.6760   43.8993 dc         1 CLA      0.052100
     71 HMC1       72.1756   59.4427   44.3638 dc         1 CLA      0.052100
     72 HMB3       79.7579   62.6419   40.9953 dc         1 CLA      0.063600
     73 HMB2       80.6132   61.0646   40.8875 dc         1 CLA      0.063600
     74 HMB1       80.0576   61.9441   39.4472 dc         1 CLA      0.063600
     75 HMA3       80.7812   58.3608   37.0679 dc         1 CLA      0.058300
     76 HMA2       79.7415   56.9654   36.9717 dc         1 CLA      0.058300
     77 HMA1       80.3868   57.6108   35.5551 dc         1 CLA      0.058300
     78 HED3       77.0485   52.4146   35.6745 dc         1 CLA      0.079300
     79 HED2       76.3460   52.1688   34.1816 dc         1 CLA      0.079300
     80 HED1       77.7595   53.2592   34.3656 dc         1 CLA      0.079300
     81 HBC3       69.9519   56.2880   41.2371 dc         1 CLA      0.016300
     82 HBC2       71.5803   55.7056   41.8102 dc         1 CLA      0.016300
     83 HBC1       70.2789   55.7301   42.9995 dc         1 CLA      0.016300
     84 HBB2       77.5232   61.9453   44.9808 da         1 CLA      0.183000
     85 HBB1       76.6452   60.4533   44.0865 da         1 CLA      0.183000
     86 HBA2       78.5075   58.8647   32.0043 dc         1 CLA      0.029400
     87 HBA1       79.5980   58.7450   33.3359 dc         1 CLA      0.029400
     88 HAC2       71.0824   57.6006   43.5462 dc         1 CLA      0.029300
     89 HAC1       70.0298   58.3953   42.1798 dc         1 CLA      0.029300
     90 HAA2       76.7340   57.7305   33.2760 dc         1 CLA      0.028700
     91 HAA1       77.2641   59.4455   33.7488 dc         1 CLA      0.028700
     92 H203       81.6627   61.7828   45.8823 dc         1 CLA      0.065600
     93 H202       81.1636   61.1120   44.2827 dc         1 CLA      0.065600
     94 H201       80.5367   60.2478   45.7028 dc         1 CLA      0.065600
     95 H193       84.6103   59.8268   44.7196 dc         1 CLA      0.065600
     96 H192       83.7545   60.9245   43.8197 dc         1 CLA      0.065600
     97 H191       84.0633   61.4045   45.5252 dc         1 CLA      0.065600
     98 H172       81.3206   58.1870   45.0253 dc         1 CLA      0.027600
     99 H171       83.0882   57.9696   44.7628 dc         1 CLA      0.027600
    100 H162       82.9131   58.8631   42.5225 dc         1 CLA      0.002900
    101 H161       81.2109   59.2938   42.7727 dc         1 CLA      0.002900
    102 H152       80.8432   56.7286   43.0272 dc         1 CLA      0.029100
    103 H151       82.5615   56.5374   42.8733 dc         1 CLA      0.029100
    104 H143       79.5528   57.5045   40.5547 dc         1 CLA      0.063600
    105 H142       80.8874   58.8089   40.5179 dc         1 CLA      0.063600
    106 H141       80.5593   57.6992   39.2078 dc         1 CLA      0.063600
    107 H122       83.7034   56.2212   40.9765 dc         1 CLA      0.032500
    108 H121       83.5079   57.8219   40.5505 dc         1 CLA      0.032500
    109 H112       82.7943   57.1313   38.1773 dc         1 CLA      0.006600
    110 H111       82.6966   55.4314   38.7538 dc         1 CLA      0.006600
    111 H102       85.2273   55.5686   38.7948 dc         1 CLA      0.024100
    112 H101       85.2527   57.2735   38.5855 dc         1 CLA      0.024100
    113 HHD        71.1923   56.9160   39.5882 da         1 CLA      0.174300
    114 HHC        75.0648   60.9319   42.6569 da         1 CLA      0.136800
    115 HHB        79.4623   60.3433   38.0731 da         1 CLA      0.138300
    116 HBD        74.9747   56.8682   33.6854 dc         1 CLA      0.107700
    117 HAB        78.5204   62.6605   42.8498 da         1 CLA      0.155200
    118 H93        86.7635   55.4133   36.8202 dc         1 CLA      0.069500
    119 H92        86.0550   55.9936   35.2185 dc         1 CLA      0.069500
    120 H91        86.5972   57.1518   36.4202 dc         1 CLA      0.069500
    121 H8         84.0830   56.9907   36.3031 dc         1 CLA      0.029300
    122 H72        82.9127   54.8094   36.7978 dc         1 CLA      0.044400
    123 H71        84.4626   53.9934   36.7454 dc         1 CLA      0.044400
    124 H62        84.5505   54.7345   34.3515 dc         1 CLA      0.015600
    125 H61        83.0206   55.5715   34.4945 dc         1 CLA      0.015600
    126 H52        83.4241   52.6942   35.0430 dc         1 CLA      0.033200
    127 H51        83.0376   53.2753   33.4478 dc         1 CLA      0.033200
    128 H43        79.8427   51.8327   35.3147 dc         1 CLA      0.037000
    129 H42        81.3187   51.1378   34.6654 dc         1 CLA      0.037000
    130 H41        81.3502   51.8458   36.3159 dc         1 CLA      0.037000
    131 H3A        79.2075   59.5924   35.4816 dc         1 CLA      0.041100
    132 H2A        78.1602   56.8336   35.1221 dc         1 CLA      0.083100
    133 H2         80.4344   54.9746   35.5264 da         1 CLA      0.180900
    134 H18        82.5934   59.6204   46.3424 dc         1 CLA     -0.003900
    135 H13        81.2279   55.8124   40.8303 dc         1 CLA      0.019700
    136 H12        79.2004   54.1496   32.9765 dc         1 CLA      0.120400
    137 H11        80.8785   54.5436   32.5239 dc         1 CLA      0.120400
    138 C1         68.2122   61.4433   49.9534 Z1         2 LUT      0.509236
    139 C2         68.3030   62.6931   50.8191 Z2         2 LUT     -0.434695
    140 C3         67.0763   63.5591   50.8190 Z3         2 LUT      0.437453
    141 O3         67.4994   64.9256   50.8423 S1         2 LUT     -0.547129
    142 C4         66.1459   63.2820   49.6509 Z4         2 LUT     -0.468603
    143 C5         66.7808   62.8332   48.3576 Z5         2 LUT      0.279246
    144 C6         67.7549   61.8980   48.5019 Z6         2 LUT     -0.305473
    145 C7         68.5324   61.4527   47.3394 Z7         2 LUT      0.069402
    146 C8         69.1056   62.2744   46.4227 Z8         2 LUT     -0.191631
    147 C9         69.6880   61.9087   45.1198 Z9         2 LUT      0.196698
    148 C10        70.3658   62.8029   44.4276 Y1         2 LUT     -0.208611
    149 C11        71.1405   62.6479   43.2408 Y2         2 LUT      0.030784
    150 C12        71.9083   63.6456   42.6858 Y3         2 LUT     -0.220316
    151 C13        72.7773   63.4560   41.5788 Y4         2 LUT      0.215937
    152 C14        73.9589   64.1733   41.5573 Y5         2 LUT     -0.185793
    153 C15        74.9902   64.0051   40.5324 Y6         2 LUT     -0.057835
    154 C16        67.3662   60.3163   50.6800 Y7         2 LUT     -0.405615
    155 C17        69.6114   60.6997   49.7957 Y7         2 LUT     -0.405615
    156 C18        66.2486   63.6471   47.1989 Y9         2 LUT     -0.369639
    157 C19        69.5324   60.4687   44.6618 W1         2 LUT     -0.333362
    158 C20        72.0982   62.8778   40.3211 W2         2 LUT     -0.323439
    159 C21        86.5306   65.4254   34.4957 Z1         2 LUT      0.406104
    160 C22        87.1144   64.8883   33.1742 Z2         2 LUT     -0.404965
    161 C23        87.1349   65.9855   32.1557 Z3         2 LUT      0.391255
    162 O23        88.0455   65.4180   31.1400 S1         2 LUT     -0.528210
    163 C24        85.8080   66.6194   31.9994 W6         2 LUT     -0.258361
    164 C25        84.7583   66.4533   32.8647 Z5         2 LUT      0.133546
    165 C26        84.9490   65.6456   34.1678 W8         2 LUT     -0.147008
    166 C27        84.3155   66.2262   35.3520 Z7         2 LUT      0.023843
    167 C28        83.2623   65.7372   35.9624 Z8         2 LUT     -0.216987
    168 C29        82.8003   66.0411   37.3373 Z9         2 LUT      0.206524
    169 C30        81.6672   65.3980   37.7649 Y1         2 LUT     -0.215556
    170 C31        80.9274   65.5063   39.0182 Y2         2 LUT      0.025142
    171 C32        79.6583   65.0208   39.0372 Y3         2 LUT     -0.212209
    172 C33        78.7294   65.0493   40.1212 Y4         2 LUT      0.240937
    173 C34        77.4442   64.6000   39.8836 Y5         2 LUT     -0.218862
    174 C35        76.2831   64.5577   40.7700 Y6         2 LUT     -0.023547
    175 C36        87.4712   66.4250   35.2110 Y7         2 LUT     -0.393485
    176 C37        86.6090   64.1427   35.4117 Y7         2 LUT     -0.393485
    177 C38        83.3612   67.0434   32.5779 Y9         2 LUT     -0.387526
    178 C39        83.4324   67.1261   38.1452 W1         2 LUT     -0.322618
    179 C40        79.1215   65.5284   41.5098 W2         2 LUT     -0.358472
    180 H403       79.3611   66.5843   41.5164 R7         2 LUT      0.097720
    181 H402       78.3168   65.3676   42.2235 R7         2 LUT      0.097720
    182 H401       79.9862   65.0100   41.9297 R7         2 LUT      0.097720
    183 H393       83.5446   68.0701   37.5673 R4         2 LUT      0.082505
    184 H392       82.9075   67.3999   39.0582 R4         2 LUT      0.082505
    185 H391       84.4188   66.8269   38.5263 R4         2 LUT      0.082505
    186 H383       82.6697   66.2313   32.5331 R1         2 LUT      0.104030
    187 H382       83.0305   67.7884   33.2360 R1         2 LUT      0.104030
    188 H381       83.4067   67.6544   31.6862 R1         2 LUT      0.104030
    189 H373       86.0728   63.3405   34.9622 T4         2 LUT      0.089537
    190 H372       87.6203   63.7422   35.5251 T4         2 LUT      0.089537
    191 H371       86.2153   64.4037   36.3590 T4         2 LUT      0.089537
    192 H363       88.4136   66.1227   35.3961 T4         2 LUT      0.089537
    193 H362       87.5574   67.3053   34.4932 T4         2 LUT      0.089537
    194 H361       87.0333   66.6564   36.1663 T4         2 LUT      0.089537
    195 H222       88.1959   64.6611   33.3994 U2         2 LUT      0.127376
    196 H221       86.5120   64.0274   32.8920 U2         2 LUT      0.127376
    197 H203       71.1565   63.2235   40.1708 R7         2 LUT      0.087068
    198 H202       72.6250   63.2231   39.3654 R7         2 LUT      0.087068
    199 H201       72.2222   61.7909   40.1799 R7         2 LUT      0.087068
    200 H193       68.4617   60.1891   44.6144 R4         2 LUT      0.089716
    201 H192       69.9508   60.1550   43.6532 R4         2 LUT      0.089716
    202 H191       69.9915   59.7766   45.4593 R4         2 LUT      0.089716
    203 H183       66.3015   63.0310   46.2837 R1         2 LUT      0.094572
    204 H182       65.2017   63.8453   47.2093 R1         2 LUT      0.094572
    205 H181       66.8204   64.5496   47.1901 R1         2 LUT      0.094572
    206 H173       69.8925   60.3644   50.7729 T4         2 LUT      0.093752
    207 H172       69.5295   59.7599   49.2118 T4         2 LUT      0.093752
    208 H171       70.3871   61.3408   49.4091 T4         2 LUT      0.093752
    209 H163       66.3270   60.6386   50.9513 T4         2 LUT      0.093752
    210 H162       67.0514   59.4338   50.0819 T4         2 LUT      0.093752
    211 H161       67.8365   59.8486   51.5480 T4         2 LUT      0.093752
    212 HO3        66.8678   65.4072   51.4431 Q1         2 LUT      0.300121
    213 H8         69.0466   63.3222   46.6857 U7         2 LUT      0.080784
    214 H7         68.6333   60.4245   47.2013 U6         2 LUT      0.042190
    215 H42        65.5331   62.5004   49.9803 U5         2 LUT      0.145166
    216 H41        65.4191   64.1314   49.4389 U5         2 LUT      0.145166
    217 H35        76.3699   64.8023   41.8363 T3         2 LUT      0.077919
    218 H34        77.2594   64.3275   38.8721 T2         2 LUT      0.073626
    219 H32        79.3129   64.6365   38.1110 T1         2 LUT      0.092510
    220 H31        81.3126   65.9743   39.9378 U9         2 LUT      0.070048
    221 H30        81.1920   64.7833   36.9505 U8         2 LUT      0.085442
    222 H3         66.5035   63.2215   51.6442 U3         2 LUT     -0.031596
    223 H28        82.6816   64.9472   35.4420 U7         2 LUT      0.084728
    224 H27        84.8838   67.0143   35.7772 U6         2 LUT      0.087291
    225 H26        84.5232   64.6758   33.9545 Q6         2 LUT      0.075325
    226 H24        85.5622   67.2084   31.1149 Q5         2 LUT      0.094482
    227 H23        87.6637   66.8267   32.5837 U3         2 LUT     -0.024869
    228 H22        68.4522   62.4687   51.8752 U2         2 LUT      0.127376
    229 H21        69.0908   63.3859   50.4411 U2         2 LUT      0.127376
    230 H15        74.7379   63.5057   39.5627 T3         2 LUT      0.093200
    231 H14        74.2864   64.7635   42.4510 T2         2 LUT      0.068865
    232 H12        72.0820   64.4554   43.3784 T1         2 LUT      0.095507
    233 H11        71.0775   61.7168   42.7173 U9         2 LUT      0.068930
    234 H10        70.4708   63.7246   44.8606 U8         2 LUT      0.083911
    235 H1         87.6064   65.3339   30.2802 Q1         2 LUT      0.297311
@<TRIPOS>BOND
    1     6     1 1
    2     7     2 1
    3     8     3 1
    4     9     4 1
    5    11     4 1
    6    12     6 1
    7    13     9 1
    8    16     9 1
    9    25     5 1
   10    25    16 1
   11    26    10 1
   12    26    17 1
   13    27    18 1
   14    28    14 1
   15    28    19 1
   16    29    12 1
   17    30    13 1
   18    31    24 1
   19    32     1 1
   20    32    25 1
   21    33    21 1
   22    33    26 1
   23    34    22 1
   24    34    27 1
   25    35    23 1
   26    35    28 1
   27    36    12 1
   28    36    24 1
   29    37    13 1
   30    37    15 1
   31    38    31 1
   32    39    20 1
   33    39    32 1
   34    40     2 1
   35    40    33 1
   36    41     3 1
   37    41    34 1
   38    42     4 1
   39    42    35 1
   40    43    38 1
   41    44     5 1
   42    44    17 1
   43    44    39 1
   44    45    10 1
   45    45    18 1
   46    45    40 1
   47    46    19 1
   48    46    41 1
   49    47    14 1
   50    47    16 1
   51    47    42 1
   52    48    38 1
   53    49    48 1
   54    50    49 1
   55    51    50 1
   56    52    51 1
   57    53    51 1
   58    54    53 1
   59    55    54 1
   60    56    55 1
   61    57    56 1
   62    58    56 1
   63    59    58 1
   64    60    59 1
   65    61    60 1
   66    62    61 1
   67    63    61 1
   68    64    27 1
   69    64    46 1
   70    65     5 1
   71    65    10 1
   72    65    64 1
   73    65    14 1
   74    66    23 1
   75    67    23 1
   76    68    23 1
   77    69    22 1
   78    70    22 1
   79    71    22 1
   80    72    21 1
   81    73    21 1
   82    74    21 1
   83    75    20 1
   84    76    20 1
   85    77    20 1
   86    78    15 1
   87    79    15 1
   88    80    15 1
   89    81     8 1
   90    82     8 1
   91    83     8 1
   92    84     7 1
   93    85     7 1
   94    86     6 1
   95    87     6 1
   96    88     3 1
   97    89     3 1
   98    90     1 1
   99    91     1 1
  100    92    63 1
  101    93    63 1
  102    94    63 1
  103    95    62 1
  104    96    62 1
  105    97    62 1
  106    98    60 1
  107    99    60 1
  108   100    59 1
  109   101    59 1
  110   102    58 1
  111   103    58 1
  112   104    57 1
  113   105    57 1
  114   106    57 1
  115   107    55 1
  116   108    55 1
  117   109    54 1
  118   110    54 1
  119   111    53 1
  120   112    53 1
  121   113    19 1
  122   114    18 1
  123   115    17 1
  124   116     9 1
  125   117     2 1
  126   118    52 1
  127   119    52 1
  128   120    52 1
  129   121    51 1
  130   122    50 1
  131   123    50 1
  132   124    49 1
  133   125    49 1
  134   126    48 1
  135   127    48 1
  136   128    43 1
  137   129    43 1
  138   130    43 1
  139   131    39 1
  140   132    32 1
  141   133    31 1
  142   134    61 1
  143   135    56 1
  144   136    24 1
  145   137    24 1
  146   139   138 1
  147   140   139 1
  148   141   140 1
  149   142   140 1
  150   143   142 1
  151   144   138 1
  152   144   143 1
  153   145   144 1
  154   146   145 1
  155   147   146 1
  156   148   147 1
  157   149   148 1
  158   150   149 1
  159   151   150 1
  160   152   151 1
  161   153   152 1
  162   154   138 1
  163   155   138 1
  164   156   143 1
  165   157   147 1
  166   158   151 1
  167   160   159 1
  168   161   160 1
  169   162   161 1
  170   163   161 1
  171   164   163 1
  172   165   159 1
  173   165   164 1
  174   166   165 1
  175   167   166 1
  176   168   167 1
  177   169   168 1
  178   170   169 1
  179   171   170 1
  180   172   171 1
  181   173   172 1
  182   174   153 1
  183   174   173 1
  184   175   159 1
  185   176   159 1
  186   177   164 1
  187   178   168 1
  188   179   172 1
  189   180   179 1
  190   181   179 1
  191   182   179 1
  192   183   178 1
  193   184   178 1
  194   185   178 1
  195   186   177 1
  196   187   177 1
  197   188   177 1
  198   189   176 1
  199   190   176 1
  200   191   176 1
  201   192   175 1
  202   193   175 1
  203   194   175 1
  204   195   160 1
  205   196   160 1
  206   197   158 1
  207   198   158 1
  208   199   158 1
  209   200   157 1
  210   201   157 1
  211   202   157 1
  212   203   156 1
  213   204   156 1
  214   205   156 1
  215   206   155 1
  216   207   155 1
  217   208   155 1
  218   209   154 1
  219   210   154 1
  220   211   154 1
  221   212   141 1
  222   213   146 1
  223   214   145 1
  224   215   142 1
  225   216   142 1
  226   217   174 1
  227   218   173 1
  228   219   171 1
  229   220   170 1
  230   221   169 1
  231   222   140 1
  232   223   167 1
  233   224   166 1
  234   225   165 1
  235   226   163 1
  236   227   161 1
  237   228   139 1
  238   229   139 1
  239   230   153 1
  240   231   152 1
  241   232   150 1
  242   233   149 1
  243   234   148 1
  244   235   162 1
  245   65    153 1
  246   65    174 1
@<TRIPOS>SUBSTRUCTURE
      1 CLA               1 ****               0 ****  **** 
      2 LUT             138 ****               0 ****  **** 
