@<TRIPOS>MOLECULE
Cpptraj generated mol2 file.
  235   246     2     0     0
SMALL
USER_CHARGES


@<TRIPOS>ATOM
      1 CAA        79.8514   59.3874   34.1558 a2         1 CLA     -0.055900
      2 CAB        79.1194   62.2283   43.4762 c8         1 CLA     -0.148500
      3 CAC        72.4432   58.1663   42.1497 a2         1 CLA     -0.012600
      4 CAD        75.2681   57.2379   34.6773 ck         1 CLA      0.398800
      5 NA         78.5343   59.4831   37.5535 ns         1 CLA     -0.225500
      6 CBA        81.1570   59.3343   33.3555 a2         1 CLA     -0.135000
      7 CBB        79.6404   63.4560   43.7816 c0         1 CLA     -0.395200
      8 CBC        72.6058   56.7687   42.6933 a3         1 CLA     -0.037700
      9 CBD        76.7522   57.6478   34.4766 a1         1 CLA     -0.053900
     10 NB         78.2558   60.5639   40.3271 nm         1 CLA     -0.295700
     11 OBD        74.5428   56.7960   33.7779 o2         1 CLA     -0.494600
     12 CGA        81.6138   57.9104   32.8758 c4         1 CLA      0.827000
     13 CGD        77.6292   56.4914   34.0832 c4         1 CLA      0.655300
     14 ND         75.7255   58.4783   37.8968 nm         1 CLA     -0.291600
     15 CED        78.0928   54.0762   34.4054 a3         1 CLA      0.005400
     16 CHA        77.2171   58.3357   35.8238 cs         1 CLA     -0.123800
     17 CHB        80.2563   60.4349   38.9574 aa         1 CLA     -0.291900
     18 CHC        76.7794   60.6974   42.3327 aa         1 CLA     -0.090400
     19 CHD        73.8450   58.1821   39.3957 aa         1 CLA     -0.052000
     20 CMA        81.9790   58.7132   37.0084 a3         1 CLA     -0.230700
     21 CMB        81.6612   61.8904   41.4295 a3         1 CLA     -0.180800
     22 CMC        74.2084   59.8002   44.0775 a3         1 CLA     -0.134000
     23 CMD        72.4591   56.8934   36.8535 a3         1 CLA     -0.141100
     24 C1         82.5023   55.7838   33.5656 a2         1 CLA      0.023000
     25 C1A        78.4332   58.8925   36.3402 ac         1 CLA     -0.015100
     26 C1B        79.6024   60.8385   40.0912 cr         1 CLA      0.054700
     27 C1C        75.6744   60.0063   41.8499 cn         1 CLA     -0.005600
     28 C1D        74.4277   58.0236   38.1374 ap         1 CLA     -0.047300
     29 O1A        81.5304   57.4621   31.7510 o2         1 CLA     -0.610800
     30 O1D        78.6627   56.6050   33.3567 o2         1 CLA     -0.558200
     31 C2         83.2631   55.3388   34.7418 c8         1 CLA     -0.325100
     32 C2A        79.7656   58.8058   35.6135 a1         1 CLA      0.098600
     33 C2B        80.2359   61.4580   41.2843 cb         1 CLA      0.088500
     34 C2C        74.5065   59.5909   42.6222 cb         1 CLA      0.053700
     35 C2D        73.8767   57.4368   36.9990 cb         1 CLA      0.058900
     36 O2A        82.1288   57.2033   33.9074 o1         1 CLA     -0.437200
     37 O2D        77.2353   55.3032   34.7655 o1         1 CLA     -0.357600
     38 C3         84.4262   54.6795   34.6243 c5         1 CLA      0.031200
     39 C3A        80.7722   59.5462   36.5909 a1         1 CLA      0.166800
     40 C3B        79.1860   61.5933   42.1701 cb         1 CLA      0.035000
     41 C3C        73.6961   58.9036   41.7965 cb         1 CLA     -0.089900
     42 C3D        74.9156   57.4632   36.0422 cb         1 CLA     -0.035900
     43 C4         84.5493   53.1572   34.5446 a3         1 CLA     -0.053300
     44 C4A        79.8391   59.8350   37.7655 ac         1 CLA      0.001800
     45 C4B        78.0131   60.9193   41.6408 cn         1 CLA     -0.020900
     46 C4C        74.3234   58.8803   40.5088 cr         1 CLA     -0.044400
     47 C4D        76.0105   58.2117   36.6191 c6         1 CLA     -0.046000
     48 C5         85.7126   55.3634   34.2911 a2         1 CLA     -0.070400
     49 C6         86.0257   56.5187   35.1834 a2         1 CLA      0.043900
     50 C7         86.1433   56.1447   36.6727 a2         1 CLA     -0.150000
     51 C8         86.2954   57.3302   37.6086 a1         1 CLA      0.064200
     52 C9         87.5047   58.2015   37.2010 a3         1 CLA     -0.259300
     53 C10        86.2380   57.0011   39.1619 a2         1 CLA     -0.071900
     54 C11        86.4519   58.0905   40.1849 a2         1 CLA      0.014500
     55 C12        86.2024   57.5873   41.6567 a2         1 CLA     -0.112100
     56 C13        86.0628   58.6958   42.7953 a1         1 CLA      0.089200
     57 C14        87.2919   59.6150   42.8048 a3         1 CLA     -0.239100
     58 C15        85.9959   58.0371   44.1250 a2         1 CLA     -0.102200
     59 C16        84.6549   57.4320   44.4432 a2         1 CLA      0.023900
     60 C17        83.5059   58.4503   44.6131 a2         1 CLA     -0.105700
     61 C18        83.6180   59.6170   45.7008 a1         1 CLA      0.206800
     62 C19        82.4559   60.5080   45.5830 a3         1 CLA     -0.280100
     63 C20        83.6385   59.0980   47.1553 a3         1 CLA     -0.280100
     64 NC         75.5353   59.5108   40.5550 nx         1 CLA     -0.309200
     65 MG         76.9817   59.6457   39.0356 mg         1 CLA      0.895000
     66 HMD3       71.9490   57.7092   36.4735 dc         1 CLA      0.064300
     67 HMD2       72.4455   56.1186   36.1111 dc         1 CLA      0.064300
     68 HMD1       72.0786   56.4785   37.7780 dc         1 CLA      0.064300
     69 HMC3       73.1745   59.8288   44.3408 dc         1 CLA      0.052100
     70 HMC2       74.6110   59.0299   44.7162 dc         1 CLA      0.052100
     71 HMC1       74.5035   60.7944   44.2754 dc         1 CLA      0.052100
     72 HMB3       81.8627   62.1912   42.4316 dc         1 CLA      0.063600
     73 HMB2       82.2614   61.0356   41.0709 dc         1 CLA      0.063600
     74 HMB1       81.8747   62.6491   40.7196 dc         1 CLA      0.063600
     75 HMA3       82.5135   58.7448   36.0456 dc         1 CLA      0.058300
     76 HMA2       82.6107   59.1849   37.7590 dc         1 CLA      0.058300
     77 HMA1       81.8126   57.6721   37.2835 dc         1 CLA      0.058300
     78 HED3       78.0950   53.7870   33.3036 dc         1 CLA      0.079300
     79 HED2       79.0844   54.3661   34.6314 dc         1 CLA      0.079300
     80 HED1       77.8880   53.1450   34.9650 dc         1 CLA      0.079300
     81 HBC3       71.6355   56.3823   43.0632 dc         1 CLA      0.016300
     82 HBC2       73.0746   56.1256   41.9375 dc         1 CLA      0.016300
     83 HBC1       73.3355   56.9378   43.5291 dc         1 CLA      0.016300
     84 HBB2       79.4779   64.0147   44.7100 da         1 CLA      0.183000
     85 HBB1       80.2799   63.9513   43.0367 da         1 CLA      0.183000
     86 HBA2       80.9562   59.8899   32.4563 dc         1 CLA      0.029400
     87 HBA1       81.9238   59.8895   33.9057 dc         1 CLA      0.029400
     88 HAC2       71.8732   58.8227   42.7891 dc         1 CLA      0.029300
     89 HAC1       71.7698   58.0474   41.3287 dc         1 CLA      0.029300
     90 HAA2       79.0424   59.0182   33.5650 dc         1 CLA      0.028700
     91 HAA1       79.5582   60.3534   34.2752 dc         1 CLA      0.028700
     92 H203       83.9433   59.8931   47.8231 dc         1 CLA      0.065600
     93 H202       82.6820   58.5826   47.3622 dc         1 CLA      0.065600
     94 H201       84.4543   58.3749   47.2356 dc         1 CLA      0.065600
     95 H193       82.3569   61.0500   46.5225 dc         1 CLA      0.065600
     96 H192       82.6122   61.2055   44.7495 dc         1 CLA      0.065600
     97 H191       81.5520   59.9602   45.4784 dc         1 CLA      0.065600
     98 H172       83.3411   58.8718   43.6095 dc         1 CLA      0.027600
     99 H171       82.6179   57.9120   44.9876 dc         1 CLA      0.027600
    100 H162       84.2642   56.8018   43.5893 dc         1 CLA      0.002900
    101 H161       84.8577   56.9685   45.3917 dc         1 CLA      0.002900
    102 H152       86.6922   57.2145   44.1872 dc         1 CLA      0.029100
    103 H151       86.3503   58.7922   44.8709 dc         1 CLA      0.029100
    104 H143       88.1926   58.9512   42.9194 dc         1 CLA      0.063600
    105 H142       87.4117   60.1360   41.8261 dc         1 CLA      0.063600
    106 H141       87.2506   60.3560   43.6293 dc         1 CLA      0.063600
    107 H122       85.1706   57.2044   41.3928 dc         1 CLA      0.032500
    108 H121       86.9025   56.7773   41.8637 dc         1 CLA      0.032500
    109 H112       87.4319   58.4660   39.9910 dc         1 CLA      0.006600
    110 H111       85.7438   58.9790   39.9855 dc         1 CLA      0.006600
    111 H102       85.2800   56.4622   39.3178 dc         1 CLA      0.024100
    112 H101       87.0123   56.2329   39.3170 dc         1 CLA      0.024100
    113 HHD        72.8750   57.6877   39.4953 da         1 CLA      0.174300
    114 HHC        76.7748   60.9833   43.3801 da         1 CLA      0.136800
    115 HHB        81.3426   60.5687   39.0409 da         1 CLA      0.138300
    116 HBD        76.8923   58.3536   33.6916 dc         1 CLA      0.107700
    117 HAB        78.4372   61.7632   44.2507 da         1 CLA      0.155200
    118 H93        87.7272   58.8689   38.0203 dc         1 CLA      0.069500
    119 H92        88.3793   57.5620   36.9349 dc         1 CLA      0.069500
    120 H91        87.2472   58.8002   36.2999 dc         1 CLA      0.069500
    121 H8         85.4314   58.0154   37.4977 dc         1 CLA      0.029300
    122 H72        85.2038   55.7219   37.0066 dc         1 CLA      0.044400
    123 H71        87.0129   55.5283   36.8365 dc         1 CLA      0.044400
    124 H62        87.0383   56.7799   34.8459 dc         1 CLA      0.015600
    125 H61        85.2771   57.2887   34.9650 dc         1 CLA      0.015600
    126 H52        86.4004   54.5947   34.3868 dc         1 CLA      0.033200
    127 H51        85.8918   55.8269   33.3102 dc         1 CLA      0.033200
    128 H43        84.5355   52.8149   33.5280 dc         1 CLA      0.037000
    129 H42        85.4209   52.8116   35.0664 dc         1 CLA      0.037000
    130 H41        83.6846   52.6690   35.1058 dc         1 CLA      0.037000
    131 H3A        81.0446   60.5012   36.0767 dc         1 CLA      0.041100
    132 H2A        80.0102   57.7888   35.5404 dc         1 CLA      0.083100
    133 H2         82.9540   55.7119   35.7333 da         1 CLA      0.180900
    134 H18        84.5181   60.1748   45.5398 dc         1 CLA     -0.003900
    135 H13        85.2147   59.2317   42.5185 dc         1 CLA      0.019700
    136 H12        81.6486   55.2087   33.3576 dc         1 CLA      0.120400
    137 H11        83.1215   55.7352   32.6999 dc         1 CLA      0.120400
    138 C1         69.1585   61.6274   50.1570 Z1         2 LUT      0.509236
    139 C2         67.7597   61.4861   50.7924 Z2         2 LUT     -0.434695
    140 C3         67.0563   62.8418   51.2965 Z3         2 LUT      0.437453
    141 O3         67.3550   63.1415   52.6020 S1         2 LUT     -0.547129
    142 C4         67.4492   63.9869   50.3863 Z4         2 LUT     -0.468603
    143 C5         68.0891   63.6600   49.0541 Z5         2 LUT      0.279246
    144 C6         68.9580   62.5766   48.9904 Z6         2 LUT     -0.305473
    145 C7         69.5367   62.1436   47.6700 Z7         2 LUT      0.069402
    146 C8         70.4020   62.8379   46.8830 Z8         2 LUT     -0.191631
    147 C9         70.9411   62.4232   45.5762 Z9         2 LUT      0.196698
    148 C10        71.9150   63.1975   45.0128 Y1         2 LUT     -0.208611
    149 C11        72.5013   62.9482   43.7113 Y2         2 LUT      0.030784
    150 C12        73.6123   63.6119   43.3216 Y3         2 LUT     -0.220316
    151 C13        74.4380   63.3861   42.1704 Y4         2 LUT      0.215937
    152 C14        75.6626   63.9781   42.2228 Y5         2 LUT     -0.185793
    153 C15        76.7022   63.9657   41.2097 Y6         2 LUT     -0.057835
    154 C16        69.7909   60.2712   49.8436 Y7         2 LUT     -0.405615
    155 C17        70.1499   62.4295   51.1241 Y7         2 LUT     -0.405615
    156 C18        67.3294   64.2297   47.9104 Y9         2 LUT     -0.369639
    157 C19        70.4325   61.1556   44.9320 W1         2 LUT     -0.333362
    158 C20        73.9178   62.8811   40.8852 W2         2 LUT     -0.323439
    159 C21        88.0561   66.4668   35.1995 Z1         2 LUT      0.406104
    160 C22        89.0027   66.1183   34.0365 Z2         2 LUT     -0.404965
    161 C23        89.0045   67.1675   32.8613 Z3         2 LUT      0.391255
    162 O23        89.6733   66.5964   31.7664 S1         2 LUT     -0.528210
    163 C24        87.7010   67.7126   32.5713 W6         2 LUT     -0.258361
    164 C25        86.6009   67.6246   33.3194 Z5         2 LUT      0.133546
    165 C26        86.6410   66.8030   34.7061 W8         2 LUT     -0.147008
    166 C27        85.7761   67.4542   35.7201 Z7         2 LUT      0.023843
    167 C28        84.7146   66.8408   36.2750 Z8         2 LUT     -0.216987
    168 C29        83.9980   67.0262   37.5596 Z9         2 LUT      0.206524
    169 C30        82.8510   66.2914   37.8712 Y1         2 LUT     -0.215556
    170 C31        82.0951   66.2557   39.0626 Y2         2 LUT      0.025142
    171 C32        80.9808   65.4917   39.2879 Y3         2 LUT     -0.212209
    172 C33        80.1596   65.3480   40.4926 Y4         2 LUT      0.240937
    173 C34        78.9623   64.6699   40.3209 Y5         2 LUT     -0.218862
    174 C35        77.8640   64.6672   41.2977 Y6         2 LUT     -0.023547
    175 C36        88.6401   67.6391   36.0099 Y7         2 LUT     -0.393485
    176 C37        88.1004   65.3398   36.2646 Y7         2 LUT     -0.393485
    177 C38        85.2972   68.4139   32.9038 Y9         2 LUT     -0.387526
    178 C39        84.4062   68.0789   38.6192 W1         2 LUT     -0.322618
    179 C40        80.5072   66.2360   41.7110 W2         2 LUT     -0.358472
    180 H403       81.4588   65.7636   42.0317 R7         2 LUT      0.097720
    181 H402       80.6043   67.2735   41.4677 R7         2 LUT      0.097720
    182 H401       79.9029   66.2303   42.6549 R7         2 LUT      0.097720
    183 H393       85.1256   68.7482   38.2422 R4         2 LUT      0.082505
    184 H392       83.5004   68.7292   38.7968 R4         2 LUT      0.082505
    185 H391       84.6926   67.5569   39.5740 R4         2 LUT      0.082505
    186 H383       85.5310   68.9899   32.0004 R1         2 LUT      0.104030
    187 H382       84.3800   67.8117   32.6459 R1         2 LUT      0.104030
    188 H381       85.0127   69.1876   33.6194 R1         2 LUT      0.104030
    189 H373       87.5961   65.5219   37.2070 T4         2 LUT      0.089537
    190 H372       87.8726   64.3485   35.7725 T4         2 LUT      0.089537
    191 H371       89.0826   65.1953   36.6894 T4         2 LUT      0.089537
    192 H363       88.1642   67.9152   36.9127 T4         2 LUT      0.089537
    193 H362       89.6434   67.3552   36.2239 T4         2 LUT      0.089537
    194 H361       88.6212   68.4928   35.3447 T4         2 LUT      0.089537
    195 H222       90.0067   66.0511   34.3795 U2         2 LUT      0.127376
    196 H221       88.7170   65.1649   33.6518 U2         2 LUT      0.127376
    197 H203       73.3891   63.6920   40.2787 R7         2 LUT      0.087068
    198 H202       74.5516   62.4239   40.2127 R7         2 LUT      0.087068
    199 H201       73.1665   62.1637   41.1201 R7         2 LUT      0.087068
    200 H193       69.3347   61.2255   44.7090 R4         2 LUT      0.089716
    201 H192       70.8252   60.8724   43.9748 R4         2 LUT      0.089716
    202 H191       70.5367   60.2548   45.6116 R4         2 LUT      0.089716
    203 H183       66.3060   64.1938   48.0541 R1         2 LUT      0.094572
    204 H182       67.7620   65.2821   47.7684 R1         2 LUT      0.094572
    205 H181       67.5359   63.6455   46.9806 R1         2 LUT      0.094572
    206 H173       69.9489   63.4781   51.2702 T4         2 LUT      0.093752
    207 H172       70.0519   61.9105   52.0969 T4         2 LUT      0.093752
    208 H171       71.1401   62.3299   50.8092 T4         2 LUT      0.093752
    209 H163       69.1842   59.6170   49.2785 T4         2 LUT      0.093752
    210 H162       70.7312   60.4664   49.3202 T4         2 LUT      0.093752
    211 H161       70.1315   59.8289   50.7599 T4         2 LUT      0.093752
    212 HO3        66.9391   62.5141   53.1895 Q1         2 LUT      0.300121
    213 H8         70.7359   63.7978   47.2555 U7         2 LUT      0.080784
    214 H7         69.2391   61.0859   47.3950 U6         2 LUT      0.042190
    215 H42        66.6019   64.6915   50.2855 U5         2 LUT      0.145166
    216 H41        68.1828   64.6272   50.9624 U5         2 LUT      0.145166
    217 H35        77.9801   65.1793   42.2135 T3         2 LUT      0.077919
    218 H34        78.7086   64.2727   39.3654 T2         2 LUT      0.073626
    219 H32        80.5858   64.8565   38.4598 T1         2 LUT      0.092510
    220 H31        82.5085   66.8204   39.9192 U9         2 LUT      0.070048
    221 H30        82.4229   65.7317   37.0368 U8         2 LUT      0.085442
    222 H3         66.0270   62.6973   51.2969 U3         2 LUT     -0.031596
    223 H28        84.4281   65.9435   35.7350 U7         2 LUT      0.084728
    224 H27        86.2267   68.3781   36.1973 U6         2 LUT      0.087291
    225 H26        86.1934   65.8024   34.4870 Q6         2 LUT      0.075325
    226 H24        87.6740   68.3511   31.6824 Q5         2 LUT      0.094482
    227 H23        89.6080   67.9967   33.1873 U3         2 LUT     -0.024869
    228 H22        67.0757   61.0334   50.1110 U2         2 LUT      0.127376
    229 H21        67.6721   60.7827   51.6447 U2         2 LUT      0.127376
    230 H15        76.5341   63.3622   40.3391 T3         2 LUT      0.093200
    231 H14        75.9165   64.5521   43.1275 T2         2 LUT      0.068865
    232 H12        73.9294   64.3786   44.0510 T1         2 LUT      0.095507
    233 H11        72.1807   62.2044   43.1071 U9         2 LUT      0.068930
    234 H10        72.2397   64.1278   45.4256 U8         2 LUT      0.083911
    235 H1         89.0786   66.2274   31.0924 Q1         2 LUT      0.297311
@<TRIPOS>BOND
    1     6     1 1
    2     7     2 1
    3     8     3 1
    4     9     4 1
    5    11     4 1
    6    12     6 1
    7    13     9 1
    8    16     9 1
    9    25     5 1
   10    25    16 1
   11    26    10 1
   12    26    17 1
   13    27    18 1
   14    28    14 1
   15    28    19 1
   16    29    12 1
   17    30    13 1
   18    31    24 1
   19    32     1 1
   20    32    25 1
   21    33    21 1
   22    33    26 1
   23    34    22 1
   24    34    27 1
   25    35    23 1
   26    35    28 1
   27    36    12 1
   28    36    24 1
   29    37    13 1
   30    37    15 1
   31    38    31 1
   32    39    20 1
   33    39    32 1
   34    40     2 1
   35    40    33 1
   36    41     3 1
   37    41    34 1
   38    42     4 1
   39    42    35 1
   40    43    38 1
   41    44     5 1
   42    44    17 1
   43    44    39 1
   44    45    10 1
   45    45    18 1
   46    45    40 1
   47    46    19 1
   48    46    41 1
   49    47    14 1
   50    47    16 1
   51    47    42 1
   52    48    38 1
   53    49    48 1
   54    50    49 1
   55    51    50 1
   56    52    51 1
   57    53    51 1
   58    54    53 1
   59    55    54 1
   60    56    55 1
   61    57    56 1
   62    58    56 1
   63    59    58 1
   64    60    59 1
   65    61    60 1
   66    62    61 1
   67    63    61 1
   68    64    27 1
   69    64    46 1
   70    65     5 1
   71    65    10 1
   72    65    64 1
   73    65    14 1
   74    66    23 1
   75    67    23 1
   76    68    23 1
   77    69    22 1
   78    70    22 1
   79    71    22 1
   80    72    21 1
   81    73    21 1
   82    74    21 1
   83    75    20 1
   84    76    20 1
   85    77    20 1
   86    78    15 1
   87    79    15 1
   88    80    15 1
   89    81     8 1
   90    82     8 1
   91    83     8 1
   92    84     7 1
   93    85     7 1
   94    86     6 1
   95    87     6 1
   96    88     3 1
   97    89     3 1
   98    90     1 1
   99    91     1 1
  100    92    63 1
  101    93    63 1
  102    94    63 1
  103    95    62 1
  104    96    62 1
  105    97    62 1
  106    98    60 1
  107    99    60 1
  108   100    59 1
  109   101    59 1
  110   102    58 1
  111   103    58 1
  112   104    57 1
  113   105    57 1
  114   106    57 1
  115   107    55 1
  116   108    55 1
  117   109    54 1
  118   110    54 1
  119   111    53 1
  120   112    53 1
  121   113    19 1
  122   114    18 1
  123   115    17 1
  124   116     9 1
  125   117     2 1
  126   118    52 1
  127   119    52 1
  128   120    52 1
  129   121    51 1
  130   122    50 1
  131   123    50 1
  132   124    49 1
  133   125    49 1
  134   126    48 1
  135   127    48 1
  136   128    43 1
  137   129    43 1
  138   130    43 1
  139   131    39 1
  140   132    32 1
  141   133    31 1
  142   134    61 1
  143   135    56 1
  144   136    24 1
  145   137    24 1
  146   139   138 1
  147   140   139 1
  148   141   140 1
  149   142   140 1
  150   143   142 1
  151   144   138 1
  152   144   143 1
  153   145   144 1
  154   146   145 1
  155   147   146 1
  156   148   147 1
  157   149   148 1
  158   150   149 1
  159   151   150 1
  160   152   151 1
  161   153   152 1
  162   154   138 1
  163   155   138 1
  164   156   143 1
  165   157   147 1
  166   158   151 1
  167   160   159 1
  168   161   160 1
  169   162   161 1
  170   163   161 1
  171   164   163 1
  172   165   159 1
  173   165   164 1
  174   166   165 1
  175   167   166 1
  176   168   167 1
  177   169   168 1
  178   170   169 1
  179   171   170 1
  180   172   171 1
  181   173   172 1
  182   174   153 1
  183   174   173 1
  184   175   159 1
  185   176   159 1
  186   177   164 1
  187   178   168 1
  188   179   172 1
  189   180   179 1
  190   181   179 1
  191   182   179 1
  192   183   178 1
  193   184   178 1
  194   185   178 1
  195   186   177 1
  196   187   177 1
  197   188   177 1
  198   189   176 1
  199   190   176 1
  200   191   176 1
  201   192   175 1
  202   193   175 1
  203   194   175 1
  204   195   160 1
  205   196   160 1
  206   197   158 1
  207   198   158 1
  208   199   158 1
  209   200   157 1
  210   201   157 1
  211   202   157 1
  212   203   156 1
  213   204   156 1
  214   205   156 1
  215   206   155 1
  216   207   155 1
  217   208   155 1
  218   209   154 1
  219   210   154 1
  220   211   154 1
  221   212   141 1
  222   213   146 1
  223   214   145 1
  224   215   142 1
  225   216   142 1
  226   217   174 1
  227   218   173 1
  228   219   171 1
  229   220   170 1
  230   221   169 1
  231   222   140 1
  232   223   167 1
  233   224   166 1
  234   225   165 1
  235   226   163 1
  236   227   161 1
  237   228   139 1
  238   229   139 1
  239   230   153 1
  240   231   152 1
  241   232   150 1
  242   233   149 1
  243   234   148 1
  244   235   162 1
  245   65    153 1
  246   65    174 1
@<TRIPOS>SUBSTRUCTURE
      1 CLA               1 ****               0 ****  **** 
      2 LUT             138 ****               0 ****  **** 
