@<TRIPOS>MOLECULE
Cpptraj generated mol2 file.
  235   246     2     0     0
SMALL
USER_CHARGES


@<TRIPOS>ATOM
      1 CAA        77.6592   57.9878   35.4300 a2         1 CLA     -0.055900
      2 CAB        78.4761   62.3289   44.2244 c8         1 CLA     -0.148500
      3 CAC        71.0517   58.8143   44.0441 a2         1 CLA     -0.012600
      4 CAD        73.4324   55.7066   36.9849 ck         1 CLA      0.398800
      5 NA         76.8848   58.7223   38.8670 ns         1 CLA     -0.225500
      6 CBA        78.9590   57.8032   34.5743 a2         1 CLA     -0.135000
      7 CBB        79.7037   62.4340   44.7850 c0         1 CLA     -0.395200
      8 CBC        70.8895   57.2840   44.4151 a3         1 CLA     -0.037700
      9 CBD        74.9972   55.9576   36.7534 a1         1 CLA     -0.053900
     10 NB         76.9043   60.5715   41.3156 nm         1 CLA     -0.295700
     11 OBD        72.7708   54.9636   36.2269 o2         1 CLA     -0.494600
     12 CGA        79.3746   56.3505   34.2227 c4         1 CLA      0.827000
     13 CGD        75.6705   54.6231   36.8663 c4         1 CLA      0.655300
     14 ND         74.0192   58.0027   39.5661 nm         1 CLA     -0.291600
     15 CED        75.9936   52.6543   38.3011 a3         1 CLA      0.005400
     16 CHA        75.4263   57.0169   37.7679 cs         1 CLA     -0.123800
     17 CHB        78.7901   59.9927   39.7948 aa         1 CLA     -0.291900
     18 CHC        75.6148   61.0460   43.3391 aa         1 CLA     -0.090400
     19 CHD        72.2873   58.0753   41.2484 aa         1 CLA     -0.052000
     20 CMA        80.0714   57.5013   38.2448 a3         1 CLA     -0.230700
     21 CMB        80.3579   62.0164   41.5329 a3         1 CLA     -0.180800
     22 CMC        73.3753   60.3766   45.4821 a3         1 CLA     -0.134000
     23 CMD        70.8204   56.0042   39.1694 a3         1 CLA     -0.141100
     24 C1         79.6597   54.2321   35.1406 a2         1 CLA      0.023000
     25 C1A        76.5841   57.7951   37.8462 ac         1 CLA     -0.015100
     26 C1B        78.2077   60.6649   40.8850 cr         1 CLA      0.054700
     27 C1C        74.4318   60.2559   43.1250 cn         1 CLA     -0.005600
     28 C1D        72.8058   57.6595   40.0011 ap         1 CLA     -0.047300
     29 O1A        79.2645   55.8513   33.1054 o2         1 CLA     -0.610800
     30 O1D        76.3378   54.1037   35.9957 o2         1 CLA     -0.558200
     31 C2         79.9324   53.5042   36.4441 c8         1 CLA     -0.325100
     32 C2A        77.8588   57.6667   36.9888 a1         1 CLA      0.098600
     33 C2B        78.9645   61.5268   41.7266 cb         1 CLA      0.088500
     34 C2C        73.4084   59.9940   44.0713 cb         1 CLA      0.053700
     35 C2D        72.1648   56.7857   39.0720 cb         1 CLA      0.058900
     36 O2A        79.7398   55.6854   35.3317 o1         1 CLA     -0.437200
     37 O2D        75.3734   53.9812   38.1037 o1         1 CLA     -0.357600
     38 C3         81.1530   53.3947   37.0813 c5         1 CLA      0.031200
     39 C3A        78.9701   58.4961   37.7511 a1         1 CLA      0.166800
     40 C3B        78.1118   61.7752   42.8622 cb         1 CLA      0.035000
     41 C3C        72.4256   59.2223   43.4918 cb         1 CLA     -0.089900
     42 C3D        73.1607   56.4624   38.1418 cb         1 CLA     -0.035900
     43 C4         82.1440   52.2931   36.7307 a3         1 CLA     -0.053300
     44 C4A        78.2054   59.0775   38.8994 ac         1 CLA      0.001800
     45 C4B        76.7744   61.1903   42.4823 cn         1 CLA     -0.020900
     46 C4C        72.9244   58.9148   42.1958 cr         1 CLA     -0.044400
     47 C4D        74.2966   57.1780   38.5292 c6         1 CLA     -0.046000
     48 C5         81.4523   54.1951   38.2806 a2         1 CLA     -0.070400
     49 C6         82.6329   55.1541   38.1737 a2         1 CLA      0.043900
     50 C7         82.9884   55.8005   39.5147 a2         1 CLA     -0.150000
     51 C8         84.0142   56.9775   39.5164 a1         1 CLA      0.064200
     52 C9         85.4087   56.6299   38.7968 a3         1 CLA     -0.259300
     53 C10        84.2947   57.4255   40.9870 a2         1 CLA     -0.071900
     54 C11        83.0667   58.2306   41.5884 a2         1 CLA      0.014500
     55 C12        83.3819   59.0598   42.9020 a2         1 CLA     -0.112100
     56 C13        83.5322   58.1858   44.1838 a1         1 CLA      0.089200
     57 C14        82.2835   57.5382   44.5544 a3         1 CLA     -0.239100
     58 C15        84.0573   59.0771   45.3199 a2         1 CLA     -0.102200
     59 C16        83.0719   60.2171   45.9978 a2         1 CLA      0.023900
     60 C17        83.8116   60.8937   47.1938 a2         1 CLA     -0.105700
     61 C18        83.2662   62.1664   47.7947 a1         1 CLA      0.206800
     62 C19        84.1999   62.6274   49.0241 a3         1 CLA     -0.280100
     63 C20        83.1076   63.2663   46.7144 a3         1 CLA     -0.280100
     64 NC         74.1414   59.5783   41.9376 nx         1 CLA     -0.309200
     65 MG         75.4209   59.3885   40.3297 mg         1 CLA      0.895000
     66 HMD3       70.0784   56.2514   38.4350 dc         1 CLA      0.064300
     67 HMD2       71.1094   54.9391   39.0963 dc         1 CLA      0.064300
     68 HMD1       70.4140   56.1331   40.1675 dc         1 CLA      0.064300
     69 HMC3       72.3811   60.4884   45.7726 dc         1 CLA      0.052100
     70 HMC2       73.8544   59.6721   46.1955 dc         1 CLA      0.052100
     71 HMC1       73.8843   61.3468   45.5633 dc         1 CLA      0.052100
     72 HMB3       80.5740   62.9384   42.0703 dc         1 CLA      0.063600
     73 HMB2       81.0785   61.2360   41.8942 dc         1 CLA      0.063600
     74 HMB1       80.4827   62.1342   40.4463 dc         1 CLA      0.063600
     75 HMA3       80.8702   57.9497   38.7516 dc         1 CLA      0.058300
     76 HMA2       79.6655   56.8129   38.9905 dc         1 CLA      0.058300
     77 HMA1       80.4736   56.9970   37.3196 dc         1 CLA      0.058300
     78 HED3       75.6716   52.2584   39.2583 dc         1 CLA      0.079300
     79 HED2       75.7441   51.9494   37.4694 dc         1 CLA      0.079300
     80 HED1       77.0694   52.6716   38.4673 dc         1 CLA      0.079300
     81 HBC3       71.5980   56.6767   43.7602 dc         1 CLA      0.016300
     82 HBC2       71.2005   57.1617   45.4320 dc         1 CLA      0.016300
     83 HBC1       69.8788   56.8754   44.2255 dc         1 CLA      0.016300
     84 HBB2       79.9662   62.9130   45.7578 da         1 CLA      0.183000
     85 HBB1       80.6216   62.0040   44.2414 da         1 CLA      0.183000
     86 HBA2       78.8620   58.2167   33.5392 dc         1 CLA      0.029400
     87 HBA1       79.8139   58.2810   35.0063 dc         1 CLA      0.029400
     88 HAC2       70.7441   59.3561   45.0302 dc         1 CLA      0.029300
     89 HAC1       70.3043   58.8914   43.2536 dc         1 CLA      0.029300
     90 HAA2       77.0164   57.3747   34.9345 dc         1 CLA      0.028700
     91 HAA1       77.3739   59.0880   35.3632 dc         1 CLA      0.028700
     92 H203       82.5048   64.1511   47.0132 dc         1 CLA      0.065600
     93 H202       84.1559   63.5434   46.4205 dc         1 CLA      0.065600
     94 H201       82.5207   62.8777   45.8860 dc         1 CLA      0.065600
     95 H193       84.5287   61.8882   49.7775 dc         1 CLA      0.065600
     96 H192       85.0574   62.9390   48.3628 dc         1 CLA      0.065600
     97 H191       83.7679   63.5156   49.5004 dc         1 CLA      0.065600
     98 H172       83.9639   60.1595   48.0722 dc         1 CLA      0.027600
     99 H171       84.7737   61.2285   46.7811 dc         1 CLA      0.027600
    100 H162       82.9422   60.7687   45.1086 dc         1 CLA      0.002900
    101 H161       82.1353   59.8011   46.2661 dc         1 CLA      0.002900
    102 H152       84.3318   58.3476   46.1480 dc         1 CLA      0.029100
    103 H151       84.9731   59.5251   44.8851 dc         1 CLA      0.029100
    104 H143       81.4670   58.2163   44.4607 dc         1 CLA      0.063600
    105 H142       82.2683   56.6910   43.9430 dc         1 CLA      0.063600
    106 H141       82.4256   57.2505   45.6372 dc         1 CLA      0.063600
    107 H122       84.2920   59.5568   42.7263 dc         1 CLA      0.032500
    108 H121       82.6156   59.7932   43.1004 dc         1 CLA      0.032500
    109 H112       82.8636   58.9233   40.8041 dc         1 CLA      0.006600
    110 H111       82.2746   57.4662   41.7387 dc         1 CLA      0.006600
    111 H102       84.4427   56.5653   41.6381 dc         1 CLA      0.024100
    112 H101       85.2852   57.9303   41.0973 dc         1 CLA      0.024100
    113 HHD        71.2418   57.7476   41.3991 da         1 CLA      0.174300
    114 HHC        75.9125   61.4716   44.3035 da         1 CLA      0.136800
    115 HHB        79.8978   60.1478   39.7657 da         1 CLA      0.138300
    116 HBD        75.2079   56.3548   35.7127 dc         1 CLA      0.107700
    117 HAB        77.7117   62.6429   44.8893 da         1 CLA      0.155200
    118 H93        85.7537   55.7305   39.3090 dc         1 CLA      0.069500
    119 H92        85.2807   56.5632   37.7174 dc         1 CLA      0.069500
    120 H91        86.1198   57.3840   39.0502 dc         1 CLA      0.069500
    121 H8         83.7248   57.8669   38.9320 dc         1 CLA      0.029300
    122 H72        82.0939   55.9268   40.1454 dc         1 CLA      0.044400
    123 H71        83.5157   55.0843   40.1703 dc         1 CLA      0.044400
    124 H62        83.5007   54.6940   37.8601 dc         1 CLA      0.015600
    125 H61        82.4698   55.8830   37.4396 dc         1 CLA      0.015600
    126 H52        80.5711   54.7801   38.4471 dc         1 CLA      0.033200
    127 H51        81.5576   53.5715   39.0924 dc         1 CLA      0.033200
    128 H43        81.8393   51.6419   35.9114 dc         1 CLA      0.037000
    129 H42        83.0263   52.7084   36.3508 dc         1 CLA      0.037000
    130 H41        82.3002   51.6119   37.5477 dc         1 CLA      0.037000
    131 H3A        79.3735   59.2612   37.0242 dc         1 CLA      0.041100
    132 H2A        78.1487   56.6463   37.1950 dc         1 CLA      0.083100
    133 H2         79.1975   52.8438   36.9261 da         1 CLA      0.180900
    134 H18        82.2796   61.9870   48.2487 dc         1 CLA     -0.003900
    135 H13        84.3460   57.4295   43.9897 dc         1 CLA      0.019700
    136 H12        78.8352   53.8444   34.5562 dc         1 CLA      0.120400
    137 H11        80.5133   53.9734   34.5259 dc         1 CLA      0.120400
    138 C1         66.6851   62.8467   51.1911 Z1         2 LUT      0.509236
    139 C2         66.6063   64.1835   51.9630 Z2         2 LUT     -0.434695
    140 C3         65.3820   65.0950   51.9318 Z3         2 LUT      0.437453
    141 O3         65.8075   66.4610   52.1738 S1         2 LUT     -0.547129
    142 C4         64.6383   64.8808   50.5790 Z4         2 LUT     -0.468603
    143 C5         65.4497   64.1529   49.4773 Z5         2 LUT      0.279246
    144 C6         66.3960   63.2164   49.7053 Z6         2 LUT     -0.305473
    145 C7         67.3589   62.6906   48.7113 Z7         2 LUT      0.069402
    146 C8         68.1274   63.2370   47.7721 Z8         2 LUT     -0.191631
    147 C9         68.9515   62.6818   46.7159 Z9         2 LUT      0.196698
    148 C10        69.8843   63.3584   45.9704 Y1         2 LUT     -0.208611
    149 C11        70.4526   63.0515   44.7031 Y2         2 LUT      0.030784
    150 C12        71.4414   63.8842   44.2217 Y3         2 LUT     -0.220316
    151 C13        72.2614   63.6503   42.9644 Y4         2 LUT      0.215937
    152 C14        73.5340   64.2433   42.9002 Y5         2 LUT     -0.185793
    153 C15        74.4283   64.2641   41.8851 Y6         2 LUT     -0.057835
    154 C16        65.6614   62.0245   51.9627 Y7         2 LUT     -0.405615
    155 C17        68.1263   62.2353   51.4402 Y7         2 LUT     -0.405615
    156 C18        65.2831   64.8356   48.1167 Y9         2 LUT     -0.369639
    157 C19        68.5430   61.2947   46.2686 W1         2 LUT     -0.333362
    158 C20        71.8373   62.6370   41.9256 W2         2 LUT     -0.323439
    159 C21        86.5771   65.2713   36.4265 Z1         2 LUT      0.406104
    160 C22        87.2926   64.5351   35.2554 Z2         2 LUT     -0.404965
    161 C23        87.3615   65.4923   34.0437 Z3         2 LUT      0.391255
    162 O23        88.1448   64.8548   33.0120 S1         2 LUT     -0.528210
    163 C24        85.9626   66.0183   33.7311 W6         2 LUT     -0.258361
    164 C25        84.9186   66.0441   34.5634 Z5         2 LUT      0.133546
    165 C26        85.0861   65.5114   36.0057 W8         2 LUT     -0.147008
    166 C27        84.2381   66.2598   37.0234 Z7         2 LUT      0.023843
    167 C28        83.2982   65.6397   37.7757 Z8         2 LUT     -0.216987
    168 C29        82.3699   66.1223   38.7893 Z9         2 LUT      0.206524
    169 C30        81.3372   65.2798   39.0244 Y1         2 LUT     -0.215556
    170 C31        80.3528   65.3893   40.1262 Y2         2 LUT      0.025142
    171 C32        79.1411   64.7497   40.3408 Y3         2 LUT     -0.212209
    172 C33        78.1676   64.9218   41.4119 Y4         2 LUT      0.240937
    173 C34        76.8697   64.4513   41.2113 Y5         2 LUT     -0.218862
    174 C35        75.7637   64.5763   42.1164 Y6         2 LUT     -0.023547
    175 C36        87.0987   66.6713   36.7990 Y7         2 LUT     -0.393485
    176 C37        86.6369   64.3296   37.6243 Y7         2 LUT     -0.393485
    177 C38        83.5681   66.5956   34.0613 Y9         2 LUT     -0.387526
    178 C39        82.5654   67.5287   39.2171 W1         2 LUT     -0.322618
    179 C40        78.6082   65.7144   42.5949 W2         2 LUT     -0.358472
    180 H403       78.1134   65.4678   43.5556 R7         2 LUT      0.097720
    181 H402       79.6174   65.5145   42.7984 R7         2 LUT      0.097720
    182 H401       78.4496   66.7935   42.4636 R7         2 LUT      0.097720
    183 H393       82.6544   68.1807   38.3333 R4         2 LUT      0.082505
    184 H392       81.7245   67.9663   39.7128 R4         2 LUT      0.082505
    185 H391       83.4884   67.7671   39.7863 R4         2 LUT      0.082505
    186 H383       83.3274   67.5751   34.4171 R1         2 LUT      0.104030
    187 H382       83.4190   66.5394   32.9884 R1         2 LUT      0.104030
    188 H381       82.8456   65.9319   34.3679 R1         2 LUT      0.104030
    189 H373       86.2513   64.7882   38.5815 T4         2 LUT      0.089537
    190 H372       86.1291   63.4068   37.3939 T4         2 LUT      0.089537
    191 H371       87.6955   64.1187   37.8983 T4         2 LUT      0.089537
    192 H363       87.1216   67.5015   36.0427 T4         2 LUT      0.089537
    193 H362       86.6549   67.0438   37.6892 T4         2 LUT      0.089537
    194 H361       88.1452   66.7128   37.0704 T4         2 LUT      0.089537
    195 H222       88.2656   64.2393   35.5611 U2         2 LUT      0.127376
    196 H221       86.8062   63.6703   34.9268 U2         2 LUT      0.127376
    197 H203       72.7348   62.3433   41.3734 R7         2 LUT      0.087068
    198 H202       71.2782   61.6938   42.1688 R7         2 LUT      0.087068
    199 H201       71.1742   63.1283   41.1703 R7         2 LUT      0.087068
    200 H193       68.1809   60.6582   47.0672 R4         2 LUT      0.089716
    201 H192       67.6852   61.2864   45.5124 R4         2 LUT      0.089716
    202 H191       69.4129   60.8061   45.8304 R4         2 LUT      0.089716
    203 H183       64.2044   65.1866   47.9778 R1         2 LUT      0.094572
    204 H182       65.8916   65.8098   48.1404 R1         2 LUT      0.094572
    205 H181       65.4452   64.1137   47.2721 R1         2 LUT      0.094572
    206 H173       68.2155   61.2236   51.0230 T4         2 LUT      0.093752
    207 H172       68.9569   62.7012   50.9784 T4         2 LUT      0.093752
    208 H171       68.3843   62.0592   52.4930 T4         2 LUT      0.093752
    209 H163       64.6299   62.3346   51.8476 T4         2 LUT      0.093752
    210 H162       65.5600   61.0824   51.3539 T4         2 LUT      0.093752
    211 H161       65.9765   61.7787   52.9327 T4         2 LUT      0.093752
    212 HO3        65.0995   66.9111   52.6644 Q1         2 LUT      0.300121
    213 H8         68.1084   64.3547   47.6801 U7         2 LUT      0.080784
    214 H7         67.3495   61.6507   48.7737 U6         2 LUT      0.042190
    215 H42        63.7369   64.2710   50.6742 U5         2 LUT      0.145166
    216 H41        64.1789   65.8321   50.2550 U5         2 LUT      0.145166
    217 H35        76.0089   64.9474   43.1231 T3         2 LUT      0.077919
    218 H34        76.6262   64.0099   40.2169 T2         2 LUT      0.073626
    219 H32        78.7543   63.9700   39.6632 T1         2 LUT      0.092510
    220 H31        80.6514   66.2006   40.8084 U9         2 LUT      0.070048
    221 H30        81.2045   64.3754   38.5238 U8         2 LUT      0.085442
    222 H3         64.6950   64.6339   52.5641 U3         2 LUT     -0.031596
    223 H28        83.1958   64.5962   37.4923 U7         2 LUT      0.084728
    224 H27        84.2593   67.3189   37.0964 U6         2 LUT      0.087291
    225 H26        84.7050   64.4834   35.8504 Q6         2 LUT      0.075325
    226 H24        85.7831   66.3901   32.7271 Q5         2 LUT      0.094482
    227 H23        87.9444   66.3903   34.3476 U3         2 LUT     -0.024869
    228 H22        66.9079   63.9624   53.0053 U2         2 LUT      0.127376
    229 H21        67.4048   64.7405   51.5197 U2         2 LUT      0.127376
    230 H15        74.2832   63.8498   40.9122 T3         2 LUT      0.093200
    231 H14        73.6899   64.9692   43.7371 T2         2 LUT      0.068865
    232 H12        71.8503   64.6323   44.8743 T1         2 LUT      0.095507
    233 H11        70.1558   62.1946   44.1689 U9         2 LUT      0.068930
    234 H10        70.1547   64.3625   46.4009 U8         2 LUT      0.083911
    235 H1         87.5663   64.3031   32.5279 Q1         2 LUT      0.297311
@<TRIPOS>BOND
    1     6     1 1
    2     7     2 1
    3     8     3 1
    4     9     4 1
    5    11     4 1
    6    12     6 1
    7    13     9 1
    8    16     9 1
    9    25     5 1
   10    25    16 1
   11    26    10 1
   12    26    17 1
   13    27    18 1
   14    28    14 1
   15    28    19 1
   16    29    12 1
   17    30    13 1
   18    31    24 1
   19    32     1 1
   20    32    25 1
   21    33    21 1
   22    33    26 1
   23    34    22 1
   24    34    27 1
   25    35    23 1
   26    35    28 1
   27    36    12 1
   28    36    24 1
   29    37    13 1
   30    37    15 1
   31    38    31 1
   32    39    20 1
   33    39    32 1
   34    40     2 1
   35    40    33 1
   36    41     3 1
   37    41    34 1
   38    42     4 1
   39    42    35 1
   40    43    38 1
   41    44     5 1
   42    44    17 1
   43    44    39 1
   44    45    10 1
   45    45    18 1
   46    45    40 1
   47    46    19 1
   48    46    41 1
   49    47    14 1
   50    47    16 1
   51    47    42 1
   52    48    38 1
   53    49    48 1
   54    50    49 1
   55    51    50 1
   56    52    51 1
   57    53    51 1
   58    54    53 1
   59    55    54 1
   60    56    55 1
   61    57    56 1
   62    58    56 1
   63    59    58 1
   64    60    59 1
   65    61    60 1
   66    62    61 1
   67    63    61 1
   68    64    27 1
   69    64    46 1
   70    65     5 1
   71    65    10 1
   72    65    64 1
   73    65    14 1
   74    66    23 1
   75    67    23 1
   76    68    23 1
   77    69    22 1
   78    70    22 1
   79    71    22 1
   80    72    21 1
   81    73    21 1
   82    74    21 1
   83    75    20 1
   84    76    20 1
   85    77    20 1
   86    78    15 1
   87    79    15 1
   88    80    15 1
   89    81     8 1
   90    82     8 1
   91    83     8 1
   92    84     7 1
   93    85     7 1
   94    86     6 1
   95    87     6 1
   96    88     3 1
   97    89     3 1
   98    90     1 1
   99    91     1 1
  100    92    63 1
  101    93    63 1
  102    94    63 1
  103    95    62 1
  104    96    62 1
  105    97    62 1
  106    98    60 1
  107    99    60 1
  108   100    59 1
  109   101    59 1
  110   102    58 1
  111   103    58 1
  112   104    57 1
  113   105    57 1
  114   106    57 1
  115   107    55 1
  116   108    55 1
  117   109    54 1
  118   110    54 1
  119   111    53 1
  120   112    53 1
  121   113    19 1
  122   114    18 1
  123   115    17 1
  124   116     9 1
  125   117     2 1
  126   118    52 1
  127   119    52 1
  128   120    52 1
  129   121    51 1
  130   122    50 1
  131   123    50 1
  132   124    49 1
  133   125    49 1
  134   126    48 1
  135   127    48 1
  136   128    43 1
  137   129    43 1
  138   130    43 1
  139   131    39 1
  140   132    32 1
  141   133    31 1
  142   134    61 1
  143   135    56 1
  144   136    24 1
  145   137    24 1
  146   139   138 1
  147   140   139 1
  148   141   140 1
  149   142   140 1
  150   143   142 1
  151   144   138 1
  152   144   143 1
  153   145   144 1
  154   146   145 1
  155   147   146 1
  156   148   147 1
  157   149   148 1
  158   150   149 1
  159   151   150 1
  160   152   151 1
  161   153   152 1
  162   154   138 1
  163   155   138 1
  164   156   143 1
  165   157   147 1
  166   158   151 1
  167   160   159 1
  168   161   160 1
  169   162   161 1
  170   163   161 1
  171   164   163 1
  172   165   159 1
  173   165   164 1
  174   166   165 1
  175   167   166 1
  176   168   167 1
  177   169   168 1
  178   170   169 1
  179   171   170 1
  180   172   171 1
  181   173   172 1
  182   174   153 1
  183   174   173 1
  184   175   159 1
  185   176   159 1
  186   177   164 1
  187   178   168 1
  188   179   172 1
  189   180   179 1
  190   181   179 1
  191   182   179 1
  192   183   178 1
  193   184   178 1
  194   185   178 1
  195   186   177 1
  196   187   177 1
  197   188   177 1
  198   189   176 1
  199   190   176 1
  200   191   176 1
  201   192   175 1
  202   193   175 1
  203   194   175 1
  204   195   160 1
  205   196   160 1
  206   197   158 1
  207   198   158 1
  208   199   158 1
  209   200   157 1
  210   201   157 1
  211   202   157 1
  212   203   156 1
  213   204   156 1
  214   205   156 1
  215   206   155 1
  216   207   155 1
  217   208   155 1
  218   209   154 1
  219   210   154 1
  220   211   154 1
  221   212   141 1
  222   213   146 1
  223   214   145 1
  224   215   142 1
  225   216   142 1
  226   217   174 1
  227   218   173 1
  228   219   171 1
  229   220   170 1
  230   221   169 1
  231   222   140 1
  232   223   167 1
  233   224   166 1
  234   225   165 1
  235   226   163 1
  236   227   161 1
  237   228   139 1
  238   229   139 1
  239   230   153 1
  240   231   152 1
  241   232   150 1
  242   233   149 1
  243   234   148 1
  244   235   162 1
  245   65    153 1
  246   65    174 1
@<TRIPOS>SUBSTRUCTURE
      1 CLA               1 ****               0 ****  **** 
      2 LUT             138 ****               0 ****  **** 
