@<TRIPOS>MOLECULE
Cpptraj generated mol2 file.
  235   246     2     0     0
SMALL
USER_CHARGES


@<TRIPOS>ATOM
      1 CAA        78.1100   57.6738   34.9714 a2         1 CLA     -0.055900
      2 CAB        77.9535   62.2877   43.6263 c8         1 CLA     -0.148500
      3 CAC        71.1428   58.2106   43.4383 a2         1 CLA     -0.012600
      4 CAD        74.0672   54.9509   36.5248 ck         1 CLA      0.398800
      5 NA         76.9049   58.4665   38.2899 ns         1 CLA     -0.225500
      6 CBA        79.4151   57.5634   34.1688 a2         1 CLA     -0.135000
      7 CBB        79.0562   62.1010   44.3713 c0         1 CLA     -0.395200
      8 CBC        71.2498   56.6542   43.4971 a3         1 CLA     -0.037700
      9 CBD        75.5308   55.4553   36.2388 a1         1 CLA     -0.053900
     10 NB         76.7709   60.2817   40.6830 nm         1 CLA     -0.295700
     11 OBD        73.5175   54.0006   35.8864 o2         1 CLA     -0.494600
     12 CGA        79.7702   56.0518   33.9600 c4         1 CLA      0.827000
     13 CGD        76.5203   54.3537   36.3866 c4         1 CLA      0.655300
     14 ND         74.1754   57.5543   38.9122 nm         1 CLA     -0.291600
     15 CED        77.1738   52.6490   37.9645 a3         1 CLA      0.005400
     16 CHA        75.7498   56.6676   37.1983 cs         1 CLA     -0.123800
     17 CHB        78.6599   60.0321   39.1310 aa         1 CLA     -0.291900
     18 CHC        75.4083   60.6647   42.7005 aa         1 CLA     -0.090400
     19 CHD        72.2027   57.8281   40.3233 aa         1 CLA     -0.052000
     20 CMA        80.4072   57.8389   37.7393 a3         1 CLA     -0.230700
     21 CMB        80.0208   61.8378   41.2317 a3         1 CLA     -0.180800
     22 CMC        73.1615   60.2164   44.8207 a3         1 CLA     -0.134000
     23 CMD        70.9451   55.8251   38.1741 a3         1 CLA     -0.141100
     24 C1         80.7088   54.1277   35.1130 a2         1 CLA      0.023000
     25 C1A        76.7993   57.4609   37.3251 ac         1 CLA     -0.015100
     26 C1B        78.0411   60.5888   40.2451 cr         1 CLA      0.054700
     27 C1C        74.2761   59.8771   42.4575 cn         1 CLA     -0.005600
     28 C1D        72.8531   57.2702   39.2150 ap         1 CLA     -0.047300
     29 O1A        79.3313   55.4052   33.0463 o2         1 CLA     -0.610800
     30 O1D        77.4065   54.0894   35.6012 o2         1 CLA     -0.558200
     31 C2         81.3146   53.8011   36.5167 c8         1 CLA     -0.325100
     32 C2A        78.1513   57.3511   36.5087 a1         1 CLA      0.098600
     33 C2B        78.6313   61.4843   41.2532 cb         1 CLA      0.088500
     34 C2C        73.2066   59.8229   43.3942 cb         1 CLA      0.053700
     35 C2D        72.3708   56.2719   38.2680 cb         1 CLA      0.058900
     36 O2A        80.3935   55.5967   35.0597 o1         1 CLA     -0.437200
     37 O2D        76.3542   53.8123   37.6858 o1         1 CLA     -0.357600
     38 C3         82.5783   53.9575   36.8706 c5         1 CLA      0.031200
     39 C3A        79.1206   58.4191   37.1725 a1         1 CLA      0.166800
     40 C3B        77.7332   61.6397   42.3153 cb         1 CLA      0.035000
     41 C3C        72.2733   58.9287   42.7562 cb         1 CLA     -0.089900
     42 C3D        73.5011   55.8800   37.5325 cb         1 CLA     -0.035900
     43 C4         83.5205   52.8438   36.5150 a3         1 CLA     -0.053300
     44 C4A        78.1964   59.0186   38.2972 ac         1 CLA      0.001800
     45 C4B        76.5501   60.8716   41.9141 cn         1 CLA     -0.020900
     46 C4C        72.8284   58.5757   41.4509 cr         1 CLA     -0.044400
     47 C4D        74.5432   56.7700   37.9016 c6         1 CLA     -0.046000
     48 C5         82.9769   55.1108   37.6928 a2         1 CLA     -0.070400
     49 C6         84.4534   55.0768   38.2059 a2         1 CLA      0.043900
     50 C7         84.7295   56.1635   39.3083 a2         1 CLA     -0.150000
     51 C8         84.4164   57.7001   38.9764 a1         1 CLA      0.064200
     52 C9         85.3404   58.2131   37.8444 a3         1 CLA     -0.259300
     53 C10        84.5129   58.6215   40.2033 a2         1 CLA     -0.071900
     54 C11        83.4115   58.4871   41.1974 a2         1 CLA      0.014500
     55 C12        83.5522   59.5037   42.3320 a2         1 CLA     -0.112100
     56 C13        84.7662   59.2458   43.2755 a1         1 CLA      0.089200
     57 C14        84.6189   57.9136   44.0447 a3         1 CLA     -0.239100
     58 C15        85.1456   60.3979   44.3119 a2         1 CLA     -0.102200
     59 C16        84.0299   60.7615   45.2700 a2         1 CLA      0.023900
     60 C17        84.4939   61.7489   46.2567 a2         1 CLA     -0.105700
     61 C18        83.5578   62.0484   47.4151 a1         1 CLA      0.206800
     62 C19        82.4449   62.9361   47.0053 a3         1 CLA     -0.280100
     63 C20        83.1768   60.8149   48.1697 a3         1 CLA     -0.280100
     64 NC         74.0230   59.1684   41.3318 nx         1 CLA     -0.309200
     65 MG         75.3878   59.0056   39.7696 mg         1 CLA      0.895000
     66 HMD3       70.5787   55.6921   39.1598 dc         1 CLA      0.064300
     67 HMD2       70.2298   56.7018   37.7826 dc         1 CLA      0.064300
     68 HMD1       70.8860   55.0389   37.4595 dc         1 CLA      0.064300
     69 HMC3       73.8337   61.0001   45.1259 dc         1 CLA      0.052100
     70 HMC2       72.1574   60.5581   45.0389 dc         1 CLA      0.052100
     71 HMC1       73.4609   59.2476   45.1775 dc         1 CLA      0.052100
     72 HMB3       80.1460   62.8054   41.7581 dc         1 CLA      0.063600
     73 HMB2       80.4609   61.0960   41.9014 dc         1 CLA      0.063600
     74 HMB1       80.5022   61.8103   40.2158 dc         1 CLA      0.063600
     75 HMA3       80.7906   58.5050   38.5337 dc         1 CLA      0.058300
     76 HMA2       80.2404   56.9145   38.2463 dc         1 CLA      0.058300
     77 HMA1       81.0752   57.7224   36.8854 dc         1 CLA      0.058300
     78 HED3       76.9832   52.4005   38.9934 dc         1 CLA      0.079300
     79 HED2       76.9588   51.8123   37.2139 dc         1 CLA      0.079300
     80 HED1       78.1610   52.9990   37.8925 dc         1 CLA      0.079300
     81 HBC3       71.5469   56.2572   42.5270 dc         1 CLA      0.016300
     82 HBC2       72.1033   56.4794   44.1287 dc         1 CLA      0.016300
     83 HBC1       70.3397   56.1583   43.9960 dc         1 CLA      0.016300
     84 HBB2       79.1898   62.7218   45.2476 da         1 CLA      0.183000
     85 HBB1       79.8016   61.3224   44.1506 da         1 CLA      0.183000
     86 HBA2       79.3730   58.2033   33.2283 dc         1 CLA      0.029400
     87 HBA1       80.2204   58.0615   34.7383 dc         1 CLA      0.029400
     88 HAC2       71.1383   58.5953   44.4080 dc         1 CLA      0.029300
     89 HAC1       70.1911   58.2887   42.9049 dc         1 CLA      0.029300
     90 HAA2       77.4296   57.0315   34.5235 dc         1 CLA      0.028700
     91 HAA1       77.7026   58.6634   34.8725 dc         1 CLA      0.028700
     92 H203       84.0895   60.2250   48.3554 dc         1 CLA      0.065600
     93 H202       82.6808   61.0160   49.1282 dc         1 CLA      0.065600
     94 H201       82.4868   60.2922   47.5501 dc         1 CLA      0.065600
     95 H193       82.6113   63.8098   46.3932 dc         1 CLA      0.065600
     96 H192       81.6372   62.3656   46.5758 dc         1 CLA      0.065600
     97 H191       82.0694   63.2586   47.9324 dc         1 CLA      0.065600
     98 H172       85.4000   61.3014   46.7522 dc         1 CLA      0.027600
     99 H171       84.6933   62.7925   45.8586 dc         1 CLA      0.027600
    100 H162       83.1721   61.1971   44.7548 dc         1 CLA      0.002900
    101 H161       83.7534   59.8971   45.7903 dc         1 CLA      0.002900
    102 H152       86.0393   60.1300   44.8335 dc         1 CLA      0.029100
    103 H151       85.4301   61.2658   43.6836 dc         1 CLA      0.029100
    104 H143       83.6368   57.8702   44.4914 dc         1 CLA      0.063600
    105 H142       84.8271   57.0282   43.4101 dc         1 CLA      0.063600
    106 H141       85.3901   58.0145   44.8836 dc         1 CLA      0.063600
    107 H122       83.5145   60.5273   41.9074 dc         1 CLA      0.032500
    108 H121       82.6031   59.3519   42.9023 dc         1 CLA      0.032500
    109 H112       82.4996   58.7718   40.6816 dc         1 CLA      0.006600
    110 H111       83.3947   57.4014   41.5068 dc         1 CLA      0.006600
    111 H102       85.5373   58.4713   40.6574 dc         1 CLA      0.024100
    112 H101       84.4793   59.6376   39.8773 dc         1 CLA      0.024100
    113 HHD        71.2170   57.4599   40.4749 da         1 CLA      0.174300
    114 HHC        75.4863   61.0951   43.7072 da         1 CLA      0.136800
    115 HHB        79.6505   60.4018   38.8544 da         1 CLA      0.138300
    116 HBD        75.5499   55.7898   35.2233 dc         1 CLA      0.107700
    117 HAB        77.1209   62.8953   44.0027 da         1 CLA      0.155200
    118 H93        86.3574   57.8176   37.8322 dc         1 CLA      0.069500
    119 H92        84.7311   58.1491   36.8973 dc         1 CLA      0.069500
    120 H91        85.3805   59.2680   37.9741 dc         1 CLA      0.069500
    121 H8         83.4087   57.7486   38.6571 dc         1 CLA      0.029300
    122 H72        84.0674   55.8167   40.2049 dc         1 CLA      0.044400
    123 H71        85.7714   56.0600   39.6840 dc         1 CLA      0.044400
    124 H62        84.4215   54.1045   38.7118 dc         1 CLA      0.015600
    125 H61        85.0693   55.2081   37.3418 dc         1 CLA      0.015600
    126 H52        82.8387   55.9755   37.0155 dc         1 CLA      0.033200
    127 H51        82.3427   55.2072   38.5805 dc         1 CLA      0.033200
    128 H43        84.3504   53.3462   35.9060 dc         1 CLA      0.037000
    129 H42        83.8650   52.3365   37.5028 dc         1 CLA      0.037000
    130 H41        83.0181   52.0939   35.8474 dc         1 CLA      0.037000
    131 H3A        79.4295   59.2384   36.4764 dc         1 CLA      0.041100
    132 H2A        78.5637   56.3556   36.7216 dc         1 CLA      0.083100
    133 H2         80.7830   53.1181   37.2319 da         1 CLA      0.180900
    134 H18        84.1241   62.7430   48.1425 dc         1 CLA     -0.003900
    135 H13        85.7002   59.2271   42.7818 dc         1 CLA      0.019700
    136 H12        79.8447   53.4247   35.0706 dc         1 CLA      0.120400
    137 H11        81.4197   53.8482   34.3723 dc         1 CLA      0.120400
    138 C1         67.2005   62.2479   50.7256 Z1         2 LUT      0.509236
    139 C2         67.1805   63.5566   51.5829 Z2         2 LUT     -0.434695
    140 C3         65.8527   64.3815   51.6318 Z3         2 LUT      0.437453
    141 O3         66.3427   65.6986   52.0158 S1         2 LUT     -0.547129
    142 C4         65.1197   64.3228   50.2067 Z4         2 LUT     -0.468603
    143 C5         65.8334   63.6567   49.0601 Z5         2 LUT      0.279246
    144 C6         66.7340   62.6340   49.2526 Z6         2 LUT     -0.305473
    145 C7         67.5880   62.0172   48.1881 Z7         2 LUT      0.069402
    146 C8         68.2885   62.6566   47.1775 Z8         2 LUT     -0.191631
    147 C9         68.8493   62.0643   45.9201 Z9         2 LUT      0.196698
    148 C10        69.6635   62.8834   45.2258 Y1         2 LUT     -0.208611
    149 C11        70.4666   62.6924   44.0693 Y2         2 LUT      0.030784
    150 C12        71.4556   63.5269   43.6605 Y3         2 LUT     -0.220316
    151 C13        72.3948   63.3128   42.5758 Y4         2 LUT      0.215937
    152 C14        73.5686   63.9973   42.6909 Y5         2 LUT     -0.185793
    153 C15        74.6869   63.9660   41.7405 Y6         2 LUT     -0.057835
    154 C16        66.1473   61.2995   51.4208 Y7         2 LUT     -0.405615
    155 C17        68.6114   61.5848   51.0080 Y7         2 LUT     -0.405615
    156 C18        65.5193   64.3532   47.8058 Y9         2 LUT     -0.369639
    157 C19        68.6128   60.5593   45.6773 W1         2 LUT     -0.333362
    158 C20        72.0779   62.4329   41.3808 W2         2 LUT     -0.323439
    159 C21        86.3964   65.4633   35.8831 Z1         2 LUT      0.406104
    160 C22        87.0788   64.6746   34.6953 Z2         2 LUT     -0.404965
    161 C23        87.2564   65.6103   33.4883 Z3         2 LUT      0.391255
    162 O23        87.9755   64.7752   32.4801 S1         2 LUT     -0.528210
    163 C24        86.0249   66.4635   33.1257 W6         2 LUT     -0.258361
    164 C25        84.9785   66.7072   33.9457 Z5         2 LUT      0.133546
    165 C26        84.9427   66.0910   35.3363 W8         2 LUT     -0.147008
    166 C27        84.0702   66.8576   36.3180 Z7         2 LUT      0.023843
    167 C28        83.0307   66.2563   36.8679 Z8         2 LUT     -0.216987
    168 C29        82.2524   66.5503   38.0457 Z9         2 LUT      0.206524
    169 C30        81.1983   65.7766   38.4937 Y1         2 LUT     -0.215556
    170 C31        80.3383   65.7337   39.6749 Y2         2 LUT      0.025142
    171 C32        79.2465   64.9813   39.9750 Y3         2 LUT     -0.212209
    172 C33        78.3045   65.1551   41.0979 Y4         2 LUT      0.240937
    173 C34        77.0767   64.4658   41.0576 Y5         2 LUT     -0.218862
    174 C35        75.8540   64.6455   41.9537 Y6         2 LUT     -0.023547
    175 C36        87.2217   66.6584   36.3895 Y7         2 LUT     -0.393485
    176 C37        86.4038   64.4221   37.1135 Y7         2 LUT     -0.393485
    177 C38        83.7655   67.3916   33.4849 Y9         2 LUT     -0.387526
    178 C39        82.7348   67.6994   38.9189 W1         2 LUT     -0.322618
    179 C40        78.8881   65.8219   42.3653 W2         2 LUT     -0.358472
    180 H403       79.7648   65.1968   42.7535 R7         2 LUT      0.097720
    181 H402       79.0140   66.8574   42.3037 R7         2 LUT      0.097720
    182 H401       78.1618   65.7794   43.1163 R7         2 LUT      0.097720
    183 H393       81.9806   67.9744   39.6713 R4         2 LUT      0.082505
    184 H392       83.7035   67.6538   39.3433 R4         2 LUT      0.082505
    185 H391       82.8003   68.5902   38.2957 R4         2 LUT      0.082505
    186 H383       82.8139   67.0183   33.9843 R1         2 LUT      0.104030
    187 H382       83.8065   68.4307   33.6275 R1         2 LUT      0.104030
    188 H381       83.5301   67.3151   32.4295 R1         2 LUT      0.104030
    189 H373       86.0488   64.8082   38.0700 T4         2 LUT      0.089537
    190 H372       85.7707   63.5708   36.8866 T4         2 LUT      0.089537
    191 H371       87.4625   64.1321   37.3085 T4         2 LUT      0.089537
    192 H363       87.4196   67.4338   35.7033 T4         2 LUT      0.089537
    193 H362       86.7260   67.1598   37.2991 T4         2 LUT      0.089537
    194 H361       88.2007   66.2572   36.7801 T4         2 LUT      0.089537
    195 H222       88.1309   64.3152   35.0074 U2         2 LUT      0.127376
    196 H221       86.4100   63.8437   34.3073 U2         2 LUT      0.127376
    197 H203       71.0622   62.1605   41.1687 R7         2 LUT      0.087068
    198 H202       72.3803   62.9347   40.4747 R7         2 LUT      0.087068
    199 H201       72.7068   61.5086   41.3036 R7         2 LUT      0.087068
    200 H193       68.7532   60.2508   44.6707 R4         2 LUT      0.089716
    201 H192       69.2828   60.0281   46.3617 R4         2 LUT      0.089716
    202 H191       67.5973   60.3234   45.9404 R4         2 LUT      0.089716
    203 H183       66.1138   65.2466   47.7320 R1         2 LUT      0.094572
    204 H182       65.5700   63.7366   46.8845 R1         2 LUT      0.094572
    205 H181       64.4842   64.7848   47.8062 R1         2 LUT      0.094572
    206 H173       68.7738   60.6237   50.4225 T4         2 LUT      0.093752
    207 H172       69.4102   62.2226   50.7001 T4         2 LUT      0.093752
    208 H171       68.7575   61.3260   52.1335 T4         2 LUT      0.093752
    209 H163       65.0993   61.7108   51.3935 T4         2 LUT      0.093752
    210 H162       66.1622   60.2567   51.0032 T4         2 LUT      0.093752
    211 H161       66.4765   61.1883   52.4259 T4         2 LUT      0.093752
    212 HO3        65.5899   66.2596   52.3854 Q1         2 LUT      0.300121
    213 H8         68.2078   63.7447   47.2565 U7         2 LUT      0.080784
    214 H7         67.5741   60.9231   48.1406 U6         2 LUT      0.042190
    215 H42        64.1299   63.8188   50.2453 U5         2 LUT      0.145166
    216 H41        64.6706   65.3409   50.0520 U5         2 LUT      0.145166
    217 H35        75.8431   65.3744   42.7759 T3         2 LUT      0.077919
    218 H34        76.7728   63.8078   40.2064 T2         2 LUT      0.073626
    219 H32        78.9480   64.1918   39.2296 T1         2 LUT      0.092510
    220 H31        80.5344   66.5451   40.3452 U9         2 LUT      0.070048
    221 H30        80.9067   64.9996   37.7608 U8         2 LUT      0.085442
    222 H3         65.0525   63.9853   52.3571 U3         2 LUT     -0.031596
    223 H28        82.7325   65.3287   36.3510 U7         2 LUT      0.084728
    224 H27        84.4184   67.7993   36.7583 U6         2 LUT      0.087291
    225 H26        84.4532   65.1034   35.3423 Q6         2 LUT      0.075325
    226 H24        85.8699   66.9242   32.1057 Q5         2 LUT      0.094482
    227 H23        88.0442   66.2472   33.9133 U3         2 LUT     -0.024869
    228 H22        67.3325   63.2955   52.6302 U2         2 LUT      0.127376
    229 H21        67.9799   64.1746   51.2843 U2         2 LUT      0.127376
    230 H15        74.7241   63.3447   40.8552 T3         2 LUT      0.093200
    231 H14        73.7437   64.7716   43.4278 T2         2 LUT      0.068865
    232 H12        71.4907   64.3113   44.3455 T1         2 LUT      0.095507
    233 H11        70.3781   61.7143   43.6338 U9         2 LUT      0.068930
    234 H10        69.8320   63.8295   45.6894 U8         2 LUT      0.083911
    235 H1         87.2696   64.5256   31.8595 Q1         2 LUT      0.297311
@<TRIPOS>BOND
    1     6     1 1
    2     7     2 1
    3     8     3 1
    4     9     4 1
    5    11     4 1
    6    12     6 1
    7    13     9 1
    8    16     9 1
    9    25     5 1
   10    25    16 1
   11    26    10 1
   12    26    17 1
   13    27    18 1
   14    28    14 1
   15    28    19 1
   16    29    12 1
   17    30    13 1
   18    31    24 1
   19    32     1 1
   20    32    25 1
   21    33    21 1
   22    33    26 1
   23    34    22 1
   24    34    27 1
   25    35    23 1
   26    35    28 1
   27    36    12 1
   28    36    24 1
   29    37    13 1
   30    37    15 1
   31    38    31 1
   32    39    20 1
   33    39    32 1
   34    40     2 1
   35    40    33 1
   36    41     3 1
   37    41    34 1
   38    42     4 1
   39    42    35 1
   40    43    38 1
   41    44     5 1
   42    44    17 1
   43    44    39 1
   44    45    10 1
   45    45    18 1
   46    45    40 1
   47    46    19 1
   48    46    41 1
   49    47    14 1
   50    47    16 1
   51    47    42 1
   52    48    38 1
   53    49    48 1
   54    50    49 1
   55    51    50 1
   56    52    51 1
   57    53    51 1
   58    54    53 1
   59    55    54 1
   60    56    55 1
   61    57    56 1
   62    58    56 1
   63    59    58 1
   64    60    59 1
   65    61    60 1
   66    62    61 1
   67    63    61 1
   68    64    27 1
   69    64    46 1
   70    65     5 1
   71    65    10 1
   72    65    64 1
   73    65    14 1
   74    66    23 1
   75    67    23 1
   76    68    23 1
   77    69    22 1
   78    70    22 1
   79    71    22 1
   80    72    21 1
   81    73    21 1
   82    74    21 1
   83    75    20 1
   84    76    20 1
   85    77    20 1
   86    78    15 1
   87    79    15 1
   88    80    15 1
   89    81     8 1
   90    82     8 1
   91    83     8 1
   92    84     7 1
   93    85     7 1
   94    86     6 1
   95    87     6 1
   96    88     3 1
   97    89     3 1
   98    90     1 1
   99    91     1 1
  100    92    63 1
  101    93    63 1
  102    94    63 1
  103    95    62 1
  104    96    62 1
  105    97    62 1
  106    98    60 1
  107    99    60 1
  108   100    59 1
  109   101    59 1
  110   102    58 1
  111   103    58 1
  112   104    57 1
  113   105    57 1
  114   106    57 1
  115   107    55 1
  116   108    55 1
  117   109    54 1
  118   110    54 1
  119   111    53 1
  120   112    53 1
  121   113    19 1
  122   114    18 1
  123   115    17 1
  124   116     9 1
  125   117     2 1
  126   118    52 1
  127   119    52 1
  128   120    52 1
  129   121    51 1
  130   122    50 1
  131   123    50 1
  132   124    49 1
  133   125    49 1
  134   126    48 1
  135   127    48 1
  136   128    43 1
  137   129    43 1
  138   130    43 1
  139   131    39 1
  140   132    32 1
  141   133    31 1
  142   134    61 1
  143   135    56 1
  144   136    24 1
  145   137    24 1
  146   139   138 1
  147   140   139 1
  148   141   140 1
  149   142   140 1
  150   143   142 1
  151   144   138 1
  152   144   143 1
  153   145   144 1
  154   146   145 1
  155   147   146 1
  156   148   147 1
  157   149   148 1
  158   150   149 1
  159   151   150 1
  160   152   151 1
  161   153   152 1
  162   154   138 1
  163   155   138 1
  164   156   143 1
  165   157   147 1
  166   158   151 1
  167   160   159 1
  168   161   160 1
  169   162   161 1
  170   163   161 1
  171   164   163 1
  172   165   159 1
  173   165   164 1
  174   166   165 1
  175   167   166 1
  176   168   167 1
  177   169   168 1
  178   170   169 1
  179   171   170 1
  180   172   171 1
  181   173   172 1
  182   174   153 1
  183   174   173 1
  184   175   159 1
  185   176   159 1
  186   177   164 1
  187   178   168 1
  188   179   172 1
  189   180   179 1
  190   181   179 1
  191   182   179 1
  192   183   178 1
  193   184   178 1
  194   185   178 1
  195   186   177 1
  196   187   177 1
  197   188   177 1
  198   189   176 1
  199   190   176 1
  200   191   176 1
  201   192   175 1
  202   193   175 1
  203   194   175 1
  204   195   160 1
  205   196   160 1
  206   197   158 1
  207   198   158 1
  208   199   158 1
  209   200   157 1
  210   201   157 1
  211   202   157 1
  212   203   156 1
  213   204   156 1
  214   205   156 1
  215   206   155 1
  216   207   155 1
  217   208   155 1
  218   209   154 1
  219   210   154 1
  220   211   154 1
  221   212   141 1
  222   213   146 1
  223   214   145 1
  224   215   142 1
  225   216   142 1
  226   217   174 1
  227   218   173 1
  228   219   171 1
  229   220   170 1
  230   221   169 1
  231   222   140 1
  232   223   167 1
  233   224   166 1
  234   225   165 1
  235   226   163 1
  236   227   161 1
  237   228   139 1
  238   229   139 1
  239   230   153 1
  240   231   152 1
  241   232   150 1
  242   233   149 1
  243   234   148 1
  244   235   162 1
  245   65    153 1
  246   65    174 1
@<TRIPOS>SUBSTRUCTURE
      1 CLA               1 ****               0 ****  **** 
      2 LUT             138 ****               0 ****  **** 
