@<TRIPOS>MOLECULE
Cpptraj generated mol2 file.
  235   246     2     0     0
SMALL
USER_CHARGES


@<TRIPOS>ATOM
      1 CAA        80.6622   59.1879   33.7581 a2         1 CLA     -0.055900
      2 CAB        80.4506   62.5167   42.9209 c8         1 CLA     -0.148500
      3 CAC        73.8379   58.3080   42.1462 a2         1 CLA     -0.012600
      4 CAD        76.5282   56.4815   34.7239 ck         1 CLA      0.398800
      5 NA         79.7083   59.3533   37.1712 ns         1 CLA     -0.225500
      6 CBA        81.8582   59.3433   32.8698 a2         1 CLA     -0.135000
      7 CBB        81.6132   62.4561   43.7224 c0         1 CLA     -0.395200
      8 CBC        74.0162   56.7874   42.2535 a3         1 CLA     -0.037700
      9 CBD        77.9591   57.0334   34.3864 a1         1 CLA     -0.053900
     10 NB         79.5334   60.6130   39.8062 nm         1 CLA     -0.295700
     11 OBD        75.9312   55.6889   33.9758 o2         1 CLA     -0.494600
     12 CGA        82.5150   58.0993   32.3583 c4         1 CLA      0.827000
     13 CGD        78.8602   55.8307   33.8212 c4         1 CLA      0.655300
     14 ND         77.0307   58.2722   37.6785 nm         1 CLA     -0.291600
     15 CED        79.5007   53.5955   34.4810 a3         1 CLA      0.005400
     16 CHA        78.4016   57.9204   35.6874 cs         1 CLA     -0.123800
     17 CHB        81.4019   60.7810   38.2149 aa         1 CLA     -0.291900
     18 CHC        78.0915   60.9551   41.7835 aa         1 CLA     -0.090400
     19 CHD        75.1168   58.0539   39.2988 aa         1 CLA     -0.052000
     20 CMA        83.2006   59.0611   36.2874 a3         1 CLA     -0.230700
     21 CMB        82.7581   62.4943   40.4323 a3         1 CLA     -0.180800
     22 CMC        75.7649   60.2272   43.8481 a3         1 CLA     -0.134000
     23 CMD        73.8135   56.4182   36.9510 a3         1 CLA     -0.141100
     24 C1         83.8949   56.1809   32.9095 a2         1 CLA      0.023000
     25 C1A        79.5931   58.6278   36.0240 ac         1 CLA     -0.015100
     26 C1B        80.7793   61.1203   39.4560 cr         1 CLA      0.054700
     27 C1C        77.0057   60.0798   41.4976 cn         1 CLA     -0.005600
     28 C1D        75.6923   57.9024   37.9857 ap         1 CLA     -0.047300
     29 O1A        82.6745   57.8675   31.1414 o2         1 CLA     -0.610800
     30 O1D        79.2154   55.6040   32.6392 o2         1 CLA     -0.558200
     31 C2         84.6060   55.7610   34.2185 c8         1 CLA     -0.325100
     32 C2A        80.9024   58.6270   35.1651 a1         1 CLA      0.098600
     33 C2B        81.3538   61.9488   40.4977 cb         1 CLA      0.088500
     34 C2C        75.9609   59.7304   42.4072 cb         1 CLA      0.053700
     35 C2D        75.1540   57.1221   36.9170 cb         1 CLA      0.058900
     36 O2A        83.1631   57.3862   33.3119 o1         1 CLA     -0.437200
     37 O2D        79.1500   54.9576   34.8838 o1         1 CLA     -0.357600
     38 C3         85.0246   54.6094   34.6574 c5         1 CLA      0.031200
     39 C3A        81.7844   59.5624   35.9806 a1         1 CLA      0.166800
     40 C3B        80.4049   61.9489   41.5417 cb         1 CLA      0.035000
     41 C3C        75.1271   58.9511   41.7077 cb         1 CLA     -0.089900
     42 C3D        76.1732   57.0789   35.9360 cb         1 CLA     -0.035900
     43 C4         83.9750   53.5554   35.0463 a3         1 CLA     -0.053300
     44 C4A        80.9392   59.9468   37.2272 ac         1 CLA      0.001800
     45 C4B        79.2543   61.1562   41.0545 cn         1 CLA     -0.020900
     46 C4C        75.7033   58.7651   40.3881 cr         1 CLA     -0.044400
     47 C4D        77.2567   57.8202   36.4718 c6         1 CLA     -0.046000
     48 C5         86.5308   54.2261   34.6300 a2         1 CLA     -0.070400
     49 C6         87.4818   55.0951   35.4404 a2         1 CLA      0.043900
     50 C7         87.2249   55.1135   36.9476 a2         1 CLA     -0.150000
     51 C8         88.0923   56.1370   37.7229 a1         1 CLA      0.064200
     52 C9         89.5691   55.7774   37.4954 a3         1 CLA     -0.259300
     53 C10        87.6880   56.2332   39.2044 a2         1 CLA     -0.071900
     54 C11        88.1641   57.4931   40.0055 a2         1 CLA      0.014500
     55 C12        87.9451   57.4002   41.4819 a2         1 CLA     -0.112100
     56 C13        88.3320   58.6497   42.4355 a1         1 CLA      0.089200
     57 C14        89.7995   59.1412   42.2308 a3         1 CLA     -0.239100
     58 C15        88.0273   58.2084   43.9156 a2         1 CLA     -0.102200
     59 C16        86.6276   57.6203   44.2393 a2         1 CLA      0.023900
     60 C17        86.3752   57.2442   45.6891 a2         1 CLA     -0.105700
     61 C18        86.4345   58.3888   46.7518 a1         1 CLA      0.206800
     62 C19        85.2238   59.3137   46.6176 a3         1 CLA     -0.280100
     63 C20        86.5854   57.7617   48.1092 a3         1 CLA     -0.280100
     64 NC         76.8342   59.4800   40.2991 nx         1 CLA     -0.309200
     65 MG         78.1559   59.5682   38.6302 mg         1 CLA      0.895000
     66 HMD3       73.0031   57.2162   36.8844 dc         1 CLA      0.064300
     67 HMD2       73.7718   55.7869   36.0936 dc         1 CLA      0.064300
     68 HMD1       73.8276   55.8221   37.8641 dc         1 CLA      0.064300
     69 HMC3       76.0035   61.2235   43.9646 dc         1 CLA      0.052100
     70 HMC2       74.7049   60.1344   44.2438 dc         1 CLA      0.052100
     71 HMC1       76.4130   59.6521   44.5445 dc         1 CLA      0.052100
     72 HMB3       82.7936   63.4285   41.0090 dc         1 CLA      0.063600
     73 HMB2       83.3409   61.6907   40.8429 dc         1 CLA      0.063600
     74 HMB1       83.1009   62.7489   39.4192 dc         1 CLA      0.063600
     75 HMA3       83.2100   58.0895   36.7293 dc         1 CLA      0.058300
     76 HMA2       83.8113   58.9699   35.3951 dc         1 CLA      0.058300
     77 HMA1       83.6552   59.7409   36.9881 dc         1 CLA      0.058300
     78 HED3       80.3090   53.6946   33.7560 dc         1 CLA      0.079300
     79 HED2       79.7813   53.0053   35.3886 dc         1 CLA      0.079300
     80 HED1       78.6251   53.1649   33.9154 dc         1 CLA      0.079300
     81 HBC3       74.8016   56.4289   42.8868 dc         1 CLA      0.016300
     82 HBC2       73.2275   56.2368   42.6835 dc         1 CLA      0.016300
     83 HBC1       74.2668   56.3173   41.2881 dc         1 CLA      0.016300
     84 HBB2       81.5407   62.6873   44.7910 da         1 CLA      0.183000
     85 HBB1       82.5169   61.9289   43.4732 da         1 CLA      0.183000
     86 HBA2       81.6790   60.0388   32.0804 dc         1 CLA      0.029400
     87 HBA1       82.7193   59.8244   33.4457 dc         1 CLA      0.029400
     88 HAC2       73.4072   58.7640   43.0860 dc         1 CLA      0.029300
     89 HAC1       72.9844   58.4870   41.4270 dc         1 CLA      0.029300
     90 HAA2       79.9355   58.5287   33.1691 dc         1 CLA      0.028700
     91 HAA1       80.0197   60.0768   33.8080 dc         1 CLA      0.028700
     92 H203       85.6054   57.1931   48.1886 dc         1 CLA      0.065600
     93 H202       87.3948   56.9909   48.1335 dc         1 CLA      0.065600
     94 H201       86.7104   58.5119   48.8677 dc         1 CLA      0.065600
     95 H193       85.1270   59.8224   45.6239 dc         1 CLA      0.065600
     96 H192       84.2813   58.8989   46.8795 dc         1 CLA      0.065600
     97 H191       85.3295   60.1612   47.2697 dc         1 CLA      0.065600
     98 H172       85.4226   56.7454   45.7959 dc         1 CLA      0.027600
     99 H171       87.0937   56.4706   45.9828 dc         1 CLA      0.027600
    100 H162       85.9067   58.3542   43.8748 dc         1 CLA      0.002900
    101 H161       86.3836   56.7994   43.6232 dc         1 CLA      0.002900
    102 H152       88.7670   57.4770   44.0433 dc         1 CLA      0.029100
    103 H151       88.1567   59.0442   44.5907 dc         1 CLA      0.029100
    104 H143       89.9077   59.3729   41.1879 dc         1 CLA      0.063600
    105 H142       89.9764   60.0739   42.7968 dc         1 CLA      0.063600
    106 H141       90.4770   58.3470   42.5203 dc         1 CLA      0.063600
    107 H122       86.7865   57.3146   41.6196 dc         1 CLA      0.032500
    108 H121       88.4280   56.5078   41.8117 dc         1 CLA      0.032500
    109 H112       89.2163   57.5938   39.8725 dc         1 CLA      0.006600
    110 H111       87.7486   58.4195   39.5853 dc         1 CLA      0.006600
    111 H102       86.5863   56.1275   39.3455 dc         1 CLA      0.024100
    112 H101       88.1841   55.3787   39.6776 dc         1 CLA      0.024100
    113 HHD        74.1822   57.6884   39.4168 da         1 CLA      0.174300
    114 HHC        78.0402   61.4749   42.7079 da         1 CLA      0.136800
    115 HHB        82.4012   61.2670   37.9949 da         1 CLA      0.138300
    116 HBD        77.9357   57.6666   33.4489 dc         1 CLA      0.107700
    117 HAB        79.4771   62.8650   43.3807 da         1 CLA      0.155200
    118 H93        89.7574   54.8793   38.1464 dc         1 CLA      0.069500
    119 H92        89.9711   55.6331   36.5006 dc         1 CLA      0.069500
    120 H91        90.1000   56.6138   37.8882 dc         1 CLA      0.069500
    121 H8         87.9044   57.0770   37.2065 dc         1 CLA      0.029300
    122 H72        86.2008   55.4645   37.0452 dc         1 CLA      0.044400
    123 H71        87.3883   54.1267   37.2714 dc         1 CLA      0.044400
    124 H62        88.5321   54.8002   35.2439 dc         1 CLA      0.015600
    125 H61        87.3964   56.0244   35.0036 dc         1 CLA      0.015600
    126 H52        86.6609   53.2024   34.9842 dc         1 CLA      0.033200
    127 H51        86.9110   54.2872   33.6125 dc         1 CLA      0.033200
    128 H43        84.3542   52.5583   34.8577 dc         1 CLA      0.037000
    129 H42        83.8910   53.6923   36.1486 dc         1 CLA      0.037000
    130 H41        82.9724   53.7697   34.6429 dc         1 CLA      0.037000
    131 H3A        82.0101   60.4261   35.4087 dc         1 CLA      0.041100
    132 H2A        81.3808   57.6770   35.0207 dc         1 CLA      0.083100
    133 H2         84.5059   56.4125   35.0867 da         1 CLA      0.180900
    134 H18        87.3551   58.9625   46.6102 dc         1 CLA     -0.003900
    135 H13        87.6777   59.4606   42.1901 dc         1 CLA      0.019700
    136 H12        83.1453   55.4256   32.7201 dc         1 CLA      0.120400
    137 H11        84.6338   56.4532   32.0974 dc         1 CLA      0.120400
    138 C1         69.4051   62.0280   49.5572 Z1         2 LUT      0.509236
    139 C2         67.9500   61.8081   50.0286 Z2         2 LUT     -0.434695
    140 C3         67.1724   63.0816   50.3802 Z3         2 LUT      0.437453
    141 O3         67.4996   63.6319   51.6740 S1         2 LUT     -0.547129
    142 C4         67.4874   64.2826   49.4666 Z4         2 LUT     -0.468603
    143 C5         68.3400   63.9822   48.2833 Z5         2 LUT      0.279246
    144 C6         69.2694   62.9884   48.3444 Z6         2 LUT     -0.305473
    145 C7         69.8282   62.4593   47.0982 Z7         2 LUT      0.069402
    146 C8         71.0040   62.9092   46.4628 Z8         2 LUT     -0.191631
    147 C9         71.6215   62.4376   45.2869 Z9         2 LUT      0.196698
    148 C10        72.7280   63.1472   44.7426 Y1         2 LUT     -0.208611
    149 C11        73.4977   62.9997   43.5387 Y2         2 LUT      0.030784
    150 C12        74.5680   63.8204   43.2206 Y3         2 LUT     -0.220316
    151 C13        75.5236   63.7363   42.0957 Y4         2 LUT      0.215937
    152 C14        76.7396   64.3400   42.2871 Y5         2 LUT     -0.185793
    153 C15        77.7986   64.5655   41.3221 Y6         2 LUT     -0.057835
    154 C16        70.1835   60.6264   49.4114 Y7         2 LUT     -0.405615
    155 C17        70.2712   62.8346   50.5994 Y7         2 LUT     -0.405615
    156 C18        67.8946   64.7012   47.0431 Y9         2 LUT     -0.369639
    157 C19        71.0647   61.1270   44.6809 W1         2 LUT     -0.333362
    158 C20        75.1319   63.1407   40.7140 W2         2 LUT     -0.323439
    159 C21        89.1817   66.2001   35.4370 Z1         2 LUT      0.406104
    160 C22        89.8806   65.8877   34.0941 Z2         2 LUT     -0.404965
    161 C23        89.6353   66.9118   32.9876 Z3         2 LUT      0.391255
    162 O23        90.4309   66.3571   31.8964 S1         2 LUT     -0.528210
    163 C24        88.2402   67.3617   32.7640 W6         2 LUT     -0.258361
    164 C25        87.3694   67.3359   33.7475 Z5         2 LUT      0.133546
    165 C26        87.6960   66.7036   35.1379 W8         2 LUT     -0.147008
    166 C27        87.0087   67.4163   36.2795 Z7         2 LUT      0.023843
    167 C28        85.9106   66.9012   36.8730 Z8         2 LUT     -0.216987
    168 C29        85.2900   67.2038   38.1185 Z9         2 LUT      0.206524
    169 C30        84.0923   66.6290   38.4018 Y1         2 LUT     -0.215556
    170 C31        83.2492   66.7801   39.5737 Y2         2 LUT      0.025142
    171 C32        81.9804   66.1692   39.5638 Y3         2 LUT     -0.212209
    172 C33        81.0890   66.2464   40.7161 Y4         2 LUT      0.240937
    173 C34        79.9818   65.4641   40.5722 Y5         2 LUT     -0.218862
    174 C35        78.9638   65.2520   41.5351 Y6         2 LUT     -0.023547
    175 C36        89.9918   67.1767   36.3457 Y7         2 LUT     -0.393485
    176 C37        89.2610   64.9307   36.3180 Y7         2 LUT     -0.393485
    177 C38        85.9230   67.8363   33.5032 Y9         2 LUT     -0.387526
    178 C39        85.9739   68.0587   39.1697 W1         2 LUT     -0.322618
    179 C40        81.4369   67.0391   41.9474 W2         2 LUT     -0.358472
    180 H403       80.8440   66.8708   42.8594 R7         2 LUT      0.097720
    181 H402       82.4040   66.7183   42.2062 R7         2 LUT      0.097720
    182 H401       81.4902   68.0772   41.6138 R7         2 LUT      0.097720
    183 H393       86.7938   68.6524   38.8088 R4         2 LUT      0.082505
    184 H392       85.3095   68.7281   39.7478 R4         2 LUT      0.082505
    185 H391       86.5068   67.5844   39.9813 R4         2 LUT      0.082505
    186 H383       85.3315   68.0454   34.3548 R1         2 LUT      0.104030
    187 H382       85.8873   68.7998   32.8258 R1         2 LUT      0.104030
    188 H381       85.3350   67.1646   32.9030 R1         2 LUT      0.104030
    189 H373       88.9868   63.9778   35.7972 T4         2 LUT      0.089537
    190 H372       90.2150   64.6718   36.7596 T4         2 LUT      0.089537
    191 H371       88.6890   65.0355   37.2159 T4         2 LUT      0.089537
    192 H363       89.4251   67.3359   37.2074 T4         2 LUT      0.089537
    193 H362       90.9992   66.7783   36.6057 T4         2 LUT      0.089537
    194 H361       89.9867   68.1606   35.7761 T4         2 LUT      0.089537
    195 H222       90.9315   65.6373   34.2235 U2         2 LUT      0.127376
    196 H221       89.5445   64.8570   33.7529 U2         2 LUT      0.127376
    197 H203       75.4802   63.6792   39.8379 R7         2 LUT      0.087068
    198 H202       75.4391   62.1342   40.5323 R7         2 LUT      0.087068
    199 H201       74.0925   63.3304   40.5982 R7         2 LUT      0.087068
    200 H193       69.9730   61.1587   44.5167 R4         2 LUT      0.089716
    201 H192       71.5897   60.9129   43.7475 R4         2 LUT      0.089716
    202 H191       71.2686   60.1087   45.2411 R4         2 LUT      0.089716
    203 H183       68.0968   64.0832   46.1579 R1         2 LUT      0.094572
    204 H182       66.8680   65.0841   47.0343 R1         2 LUT      0.094572
    205 H181       68.6140   65.5107   46.9574 R1         2 LUT      0.094572
    206 H173       69.8041   63.7861   50.7744 T4         2 LUT      0.093752
    207 H172       70.3719   62.2395   51.5010 T4         2 LUT      0.093752
    208 H171       71.2615   63.0991   50.1427 T4         2 LUT      0.093752
    209 H163       71.1913   60.5931   48.9250 T4         2 LUT      0.093752
    210 H162       70.3080   60.3214   50.4265 T4         2 LUT      0.093752
    211 H161       69.5960   59.8924   48.8859 T4         2 LUT      0.093752
    212 HO3        67.2783   63.1004   52.4064 Q1         2 LUT      0.300121
    213 H8         71.5302   63.7565   46.9504 U7         2 LUT      0.080784
    214 H7         69.3788   61.5921   46.6862 U6         2 LUT      0.042190
    215 H42        66.6203   64.8266   49.2488 U5         2 LUT      0.145166
    216 H41        68.1964   64.9877   49.9673 U5         2 LUT      0.145166
    217 H35        79.1142   65.6069   42.5377 T3         2 LUT      0.077919
    218 H34        79.8245   64.9183   39.6214 T2         2 LUT      0.073626
    219 H32        81.6951   65.5391   38.7714 T1         2 LUT      0.092510
    220 H31        83.5109   67.6132   40.3120 U9         2 LUT      0.070048
    221 H30        83.6910   65.9878   37.5816 U8         2 LUT      0.085442
    222 H3         66.0586   62.9415   50.3721 U3         2 LUT     -0.031596
    223 H28        85.4448   66.1132   36.3328 U7         2 LUT      0.084728
    224 H27        87.4949   68.2450   36.7576 U6         2 LUT      0.087291
    225 H26        87.1283   65.7870   34.9981 Q6         2 LUT      0.075325
    226 H24        87.8373   67.7647   31.7823 Q5         2 LUT      0.094482
    227 H23        90.2520   67.7300   33.3306 U3         2 LUT     -0.024869
    228 H22        67.3914   61.2988   49.2331 U2         2 LUT      0.127376
    229 H21        68.0274   61.1426   50.8829 U2         2 LUT      0.127376
    230 H15        77.6478   64.2636   40.2962 T3         2 LUT      0.093200
    231 H14        76.9920   64.7495   43.2491 T2         2 LUT      0.068865
    232 H12        74.8770   64.5388   44.0379 T1         2 LUT      0.095507
    233 H11        73.2069   62.1475   42.9298 U9         2 LUT      0.068930
    234 H10        73.0397   64.0418   45.2687 U8         2 LUT      0.083911
    235 H1         89.9648   66.1029   31.0855 Q1         2 LUT      0.297311
@<TRIPOS>BOND
    1     6     1 1
    2     7     2 1
    3     8     3 1
    4     9     4 1
    5    11     4 1
    6    12     6 1
    7    13     9 1
    8    16     9 1
    9    25     5 1
   10    25    16 1
   11    26    10 1
   12    26    17 1
   13    27    18 1
   14    28    14 1
   15    28    19 1
   16    29    12 1
   17    30    13 1
   18    31    24 1
   19    32     1 1
   20    32    25 1
   21    33    21 1
   22    33    26 1
   23    34    22 1
   24    34    27 1
   25    35    23 1
   26    35    28 1
   27    36    12 1
   28    36    24 1
   29    37    13 1
   30    37    15 1
   31    38    31 1
   32    39    20 1
   33    39    32 1
   34    40     2 1
   35    40    33 1
   36    41     3 1
   37    41    34 1
   38    42     4 1
   39    42    35 1
   40    43    38 1
   41    44     5 1
   42    44    17 1
   43    44    39 1
   44    45    10 1
   45    45    18 1
   46    45    40 1
   47    46    19 1
   48    46    41 1
   49    47    14 1
   50    47    16 1
   51    47    42 1
   52    48    38 1
   53    49    48 1
   54    50    49 1
   55    51    50 1
   56    52    51 1
   57    53    51 1
   58    54    53 1
   59    55    54 1
   60    56    55 1
   61    57    56 1
   62    58    56 1
   63    59    58 1
   64    60    59 1
   65    61    60 1
   66    62    61 1
   67    63    61 1
   68    64    27 1
   69    64    46 1
   70    65     5 1
   71    65    10 1
   72    65    64 1
   73    65    14 1
   74    66    23 1
   75    67    23 1
   76    68    23 1
   77    69    22 1
   78    70    22 1
   79    71    22 1
   80    72    21 1
   81    73    21 1
   82    74    21 1
   83    75    20 1
   84    76    20 1
   85    77    20 1
   86    78    15 1
   87    79    15 1
   88    80    15 1
   89    81     8 1
   90    82     8 1
   91    83     8 1
   92    84     7 1
   93    85     7 1
   94    86     6 1
   95    87     6 1
   96    88     3 1
   97    89     3 1
   98    90     1 1
   99    91     1 1
  100    92    63 1
  101    93    63 1
  102    94    63 1
  103    95    62 1
  104    96    62 1
  105    97    62 1
  106    98    60 1
  107    99    60 1
  108   100    59 1
  109   101    59 1
  110   102    58 1
  111   103    58 1
  112   104    57 1
  113   105    57 1
  114   106    57 1
  115   107    55 1
  116   108    55 1
  117   109    54 1
  118   110    54 1
  119   111    53 1
  120   112    53 1
  121   113    19 1
  122   114    18 1
  123   115    17 1
  124   116     9 1
  125   117     2 1
  126   118    52 1
  127   119    52 1
  128   120    52 1
  129   121    51 1
  130   122    50 1
  131   123    50 1
  132   124    49 1
  133   125    49 1
  134   126    48 1
  135   127    48 1
  136   128    43 1
  137   129    43 1
  138   130    43 1
  139   131    39 1
  140   132    32 1
  141   133    31 1
  142   134    61 1
  143   135    56 1
  144   136    24 1
  145   137    24 1
  146   139   138 1
  147   140   139 1
  148   141   140 1
  149   142   140 1
  150   143   142 1
  151   144   138 1
  152   144   143 1
  153   145   144 1
  154   146   145 1
  155   147   146 1
  156   148   147 1
  157   149   148 1
  158   150   149 1
  159   151   150 1
  160   152   151 1
  161   153   152 1
  162   154   138 1
  163   155   138 1
  164   156   143 1
  165   157   147 1
  166   158   151 1
  167   160   159 1
  168   161   160 1
  169   162   161 1
  170   163   161 1
  171   164   163 1
  172   165   159 1
  173   165   164 1
  174   166   165 1
  175   167   166 1
  176   168   167 1
  177   169   168 1
  178   170   169 1
  179   171   170 1
  180   172   171 1
  181   173   172 1
  182   174   153 1
  183   174   173 1
  184   175   159 1
  185   176   159 1
  186   177   164 1
  187   178   168 1
  188   179   172 1
  189   180   179 1
  190   181   179 1
  191   182   179 1
  192   183   178 1
  193   184   178 1
  194   185   178 1
  195   186   177 1
  196   187   177 1
  197   188   177 1
  198   189   176 1
  199   190   176 1
  200   191   176 1
  201   192   175 1
  202   193   175 1
  203   194   175 1
  204   195   160 1
  205   196   160 1
  206   197   158 1
  207   198   158 1
  208   199   158 1
  209   200   157 1
  210   201   157 1
  211   202   157 1
  212   203   156 1
  213   204   156 1
  214   205   156 1
  215   206   155 1
  216   207   155 1
  217   208   155 1
  218   209   154 1
  219   210   154 1
  220   211   154 1
  221   212   141 1
  222   213   146 1
  223   214   145 1
  224   215   142 1
  225   216   142 1
  226   217   174 1
  227   218   173 1
  228   219   171 1
  229   220   170 1
  230   221   169 1
  231   222   140 1
  232   223   167 1
  233   224   166 1
  234   225   165 1
  235   226   163 1
  236   227   161 1
  237   228   139 1
  238   229   139 1
  239   230   153 1
  240   231   152 1
  241   232   150 1
  242   233   149 1
  243   234   148 1
  244   235   162 1
  245   65    153 1
  246   65    174 1
@<TRIPOS>SUBSTRUCTURE
      1 CLA               1 ****               0 ****  **** 
      2 LUT             138 ****               0 ****  **** 
