@<TRIPOS>MOLECULE
Cpptraj generated mol2 file.
  235   246     2     0     0
SMALL
USER_CHARGES


@<TRIPOS>ATOM
      1 CAA        79.8164   59.1523   33.4495 a2         1 CLA     -0.055900
      2 CAB        78.5468   61.5657   42.9485 c8         1 CLA     -0.148500
      3 CAC        72.0125   57.4767   41.0215 a2         1 CLA     -0.012600
      4 CAD        75.5044   56.7310   33.5899 ck         1 CLA      0.398800
      5 NA         78.3499   59.1474   36.7476 ns         1 CLA     -0.225500
      6 CBA        81.1544   58.9720   32.7289 a2         1 CLA     -0.135000
      7 CBB        79.5936   61.2978   43.8018 c0         1 CLA     -0.395200
      8 CBC        71.8869   56.0262   41.2238 a3         1 CLA     -0.037700
      9 CBD        77.0072   57.2055   33.5849 a1         1 CLA     -0.053900
     10 NB         77.9842   60.0970   39.5950 nm         1 CLA     -0.295700
     11 OBD        74.9635   56.2920   32.5907 o2         1 CLA     -0.494600
     12 CGA        81.5231   57.5469   32.2603 c4         1 CLA      0.827000
     13 CGD        77.9054   56.0564   33.2437 c4         1 CLA      0.655300
     14 ND         75.5324   57.9756   36.8028 nm         1 CLA     -0.291600
     15 CED        78.2529   53.6675   33.3110 a3         1 CLA      0.005400
     16 CHA        77.2492   57.8896   34.9956 cs         1 CLA     -0.123800
     17 CHB        79.9885   60.2983   38.2549 aa         1 CLA     -0.291900
     18 CHC        76.3795   59.9828   41.4266 aa         1 CLA     -0.090400
     19 CHD        73.5546   57.5352   38.2151 aa         1 CLA     -0.052000
     20 CMA        81.6402   58.4246   36.6174 a3         1 CLA     -0.230700
     21 CMB        81.1366   61.8099   40.6929 a3         1 CLA     -0.180800
     22 CMC        74.1145   58.9956   43.0123 a3         1 CLA     -0.134000
     23 CMD        72.5888   56.1607   35.4375 a3         1 CLA     -0.141100
     24 C1         82.3902   55.4628   32.9614 a2         1 CLA      0.023000
     25 C1A        78.3911   58.4701   35.5234 ac         1 CLA     -0.015100
     26 C1B        79.3237   60.4977   39.4810 cr         1 CLA      0.054700
     27 C1C        75.4273   59.0964   40.9310 cn         1 CLA     -0.005600
     28 C1D        74.2978   57.3907   37.0319 ap         1 CLA     -0.047300
     29 O1A        81.2818   57.0185   31.1395 o2         1 CLA     -0.610800
     30 O1D        79.0056   56.2462   32.6537 o2         1 CLA     -0.558200
     31 C2         82.9821   54.7201   34.1684 c8         1 CLA     -0.325100
     32 C2A        79.7755   58.5577   34.8906 a1         1 CLA      0.098600
     33 C2B        79.7499   61.2927   40.6149 cb         1 CLA      0.088500
     34 C2C        74.2731   58.6289   41.6821 cb         1 CLA      0.053700
     35 C2D        73.8996   56.7618   35.7777 cb         1 CLA      0.058900
     36 O2A        82.0947   56.8577   33.2684 o1         1 CLA     -0.437200
     37 O2D        77.4325   54.8143   33.7477 o1         1 CLA     -0.357600
     38 C3         84.1500   54.0950   34.1449 c5         1 CLA      0.031200
     39 C3A        80.6980   59.3415   35.9730 a1         1 CLA      0.166800
     40 C3B        78.6619   61.1866   41.5255 cb         1 CLA      0.035000
     41 C3C        73.3893   58.0056   40.7700 cb         1 CLA     -0.089900
     42 C3D        75.0329   56.9827   34.9388 cb         1 CLA     -0.035900
     43 C4         84.1860   52.5625   34.2343 a3         1 CLA     -0.053300
     44 C4A        79.6045   59.6590   37.0445 ac         1 CLA      0.001800
     45 C4B        77.5819   60.4004   40.8841 cn         1 CLA     -0.020900
     46 C4C        74.0318   58.0224   39.4761 cr         1 CLA     -0.044400
     47 C4D        76.0452   57.5937   35.6613 c6         1 CLA     -0.046000
     48 C5         85.4354   54.8732   34.0418 a2         1 CLA     -0.070400
     49 C6         85.5263   56.2470   34.8963 a2         1 CLA      0.043900
     50 C7         85.4459   55.9881   36.4711 a2         1 CLA     -0.150000
     51 C8         85.4388   57.2308   37.4713 a1         1 CLA      0.064200
     52 C9         86.8316   57.8664   37.3203 a3         1 CLA     -0.259300
     53 C10        85.0772   56.9260   38.9389 a2         1 CLA     -0.071900
     54 C11        84.7619   58.0358   39.8403 a2         1 CLA      0.014500
     55 C12        84.8054   57.6621   41.3598 a2         1 CLA     -0.112100
     56 C13        84.5914   58.8825   42.2912 a1         1 CLA      0.089200
     57 C14        85.7747   59.8436   42.0911 a3         1 CLA     -0.239100
     58 C15        84.5143   58.3385   43.7286 a2         1 CLA     -0.102200
     59 C16        83.1292   57.6714   44.2538 a2         1 CLA      0.023900
     60 C17        83.4259   56.6224   45.3913 a2         1 CLA     -0.105700
     61 C18        84.1613   55.2986   45.1239 a1         1 CLA      0.206800
     62 C19        84.6323   54.6806   46.4608 a3         1 CLA     -0.280100
     63 C20        83.2183   54.3350   44.4557 a3         1 CLA     -0.280100
     64 NC         75.3045   58.6960   39.6375 nx         1 CLA     -0.309200
     65 MG         76.7547   59.1690   38.1404 mg         1 CLA      0.895000
     66 HMD3       71.9353   55.9140   36.2542 dc         1 CLA      0.064300
     67 HMD2       72.0886   56.7713   34.6764 dc         1 CLA      0.064300
     68 HMD1       72.9221   55.2684   34.9520 dc         1 CLA      0.064300
     69 HMC3       73.3358   58.3905   43.5041 dc         1 CLA      0.052100
     70 HMC2       75.1355   58.9412   43.5106 dc         1 CLA      0.052100
     71 HMC1       73.8722   60.0407   43.1117 dc         1 CLA      0.052100
     72 HMB3       81.4379   62.1091   41.6713 dc         1 CLA      0.063600
     73 HMB2       81.8499   61.0616   40.4608 dc         1 CLA      0.063600
     74 HMB1       81.1776   62.6923   40.0327 dc         1 CLA      0.063600
     75 HMA3       82.2823   57.9861   35.8678 dc         1 CLA      0.058300
     76 HMA2       82.3482   58.8648   37.3764 dc         1 CLA      0.058300
     77 HMA1       81.1589   57.5721   37.0486 dc         1 CLA      0.058300
     78 HED3       79.2985   53.8146   33.7683 dc         1 CLA      0.079300
     79 HED2       77.8477   52.6504   33.5534 dc         1 CLA      0.079300
     80 HED1       78.2631   53.6744   32.2494 dc         1 CLA      0.079300
     81 HBC3       70.9081   55.8203   41.6279 dc         1 CLA      0.016300
     82 HBC2       71.9010   55.5160   40.2982 dc         1 CLA      0.016300
     83 HBC1       72.7337   55.8729   41.9428 dc         1 CLA      0.016300
     84 HBB2       79.6174   61.5394   44.9297 da         1 CLA      0.183000
     85 HBB1       80.4340   60.7873   43.3293 da         1 CLA      0.183000
     86 HBA2       81.1559   59.6146   31.8451 dc         1 CLA      0.029400
     87 HBA1       81.9047   59.3890   33.3123 dc         1 CLA      0.029400
     88 HAC2       71.6831   57.9712   41.9213 dc         1 CLA      0.029300
     89 HAC1       71.3728   57.6010   40.1588 dc         1 CLA      0.029300
     90 HAA2       79.0579   58.7152   32.8216 dc         1 CLA      0.028700
     91 HAA1       79.5762   60.2247   33.4891 dc         1 CLA      0.028700
     92 H203       83.5957   53.3178   44.5331 dc         1 CLA      0.065600
     93 H202       82.2848   54.3650   44.9279 dc         1 CLA      0.065600
     94 H201       83.0279   54.6434   43.4553 dc         1 CLA      0.065600
     95 H193       83.6723   54.5304   47.0184 dc         1 CLA      0.065600
     96 H192       85.0154   53.7261   46.2026 dc         1 CLA      0.065600
     97 H191       85.3567   55.2249   47.0824 dc         1 CLA      0.065600
     98 H172       84.0705   57.2685   45.9730 dc         1 CLA      0.027600
     99 H171       82.5996   56.4612   46.0103 dc         1 CLA      0.027600
    100 H162       82.5161   58.4701   44.6968 dc         1 CLA      0.002900
    101 H161       82.5626   57.2096   43.4602 dc         1 CLA      0.002900
    102 H152       85.4665   57.9294   44.0264 dc         1 CLA      0.029100
    103 H151       84.6098   59.2456   44.3025 dc         1 CLA      0.029100
    104 H143       85.6505   60.3763   41.1883 dc         1 CLA      0.063600
    105 H142       85.9021   60.5289   42.9704 dc         1 CLA      0.063600
    106 H141       86.7347   59.3406   41.9144 dc         1 CLA      0.063600
    107 H122       83.9786   56.9064   41.5398 dc         1 CLA      0.032500
    108 H121       85.7335   57.2261   41.6532 dc         1 CLA      0.032500
    109 H112       85.5855   58.7229   39.6896 dc         1 CLA      0.006600
    110 H111       83.8052   58.4513   39.5736 dc         1 CLA      0.006600
    111 H102       84.2546   56.2404   38.9806 dc         1 CLA      0.024100
    112 H101       86.0131   56.6084   39.4142 dc         1 CLA      0.024100
    113 HHD        72.6075   56.9940   38.2116 da         1 CLA      0.174300
    114 HHC        76.2016   60.3526   42.4672 da         1 CLA      0.136800
    115 HHB        81.0339   60.6316   38.2397 da         1 CLA      0.138300
    116 HBD        77.0235   57.9844   32.8228 dc         1 CLA      0.107700
    117 HAB        77.5919   61.8817   43.4193 da         1 CLA      0.155200
    118 H93        86.9201   58.8563   37.8139 dc         1 CLA      0.069500
    119 H92        87.5107   57.1501   37.8161 dc         1 CLA      0.069500
    120 H91        87.1179   58.0151   36.2708 dc         1 CLA      0.069500
    121 H8         84.7305   57.9679   37.0174 dc         1 CLA      0.029300
    122 H72        84.4967   55.4268   36.6347 dc         1 CLA      0.044400
    123 H71        86.2259   55.2929   36.6988 dc         1 CLA      0.044400
    124 H62        86.4789   56.6201   34.6844 dc         1 CLA      0.015600
    125 H61        84.8203   57.0130   34.5553 dc         1 CLA      0.015600
    126 H52        86.1989   54.2509   34.4535 dc         1 CLA      0.033200
    127 H51        85.7942   55.1262   33.0444 dc         1 CLA      0.033200
    128 H43        84.6173   52.1606   33.2862 dc         1 CLA      0.037000
    129 H42        84.7956   52.1699   35.0450 dc         1 CLA      0.037000
    130 H41        83.2338   52.0632   34.2670 dc         1 CLA      0.037000
    131 H3A        81.1256   60.1676   35.5295 dc         1 CLA      0.041100
    132 H2A        80.0760   57.4733   34.8016 dc         1 CLA      0.083100
    133 H2         82.5670   55.0518   35.0872 da         1 CLA      0.180900
    134 H18        85.0623   55.5390   44.5410 dc         1 CLA     -0.003900
    135 H13        83.6772   59.3833   42.0069 dc         1 CLA      0.019700
    136 H12        81.4130   54.9470   32.6465 dc         1 CLA      0.120400
    137 H11        82.9746   55.3545   32.1348 dc         1 CLA      0.120400
    138 C1         69.4193   61.5915   49.0074 Z1         2 LUT      0.509236
    139 C2         68.9250   62.2799   50.2537 Z2         2 LUT     -0.434695
    140 C3         67.4442   62.3111   50.4745 Z3         2 LUT      0.437453
    141 O3         66.9744   62.8892   51.7429 S1         2 LUT     -0.547129
    142 C4         66.8886   63.1855   49.2721 Z4         2 LUT     -0.468603
    143 C5         67.4705   62.8105   47.9222 Z5         2 LUT      0.279246
    144 C6         68.5975   62.0527   47.7581 Z6         2 LUT     -0.305473
    145 C7         69.2908   61.9514   46.4457 Z7         2 LUT      0.069402
    146 C8         70.5580   62.0250   45.9060 Z8         2 LUT     -0.191631
    147 C9         70.9689   61.9010   44.5287 Z9         2 LUT      0.196698
    148 C10        72.1822   62.4397   44.1985 Y1         2 LUT     -0.208611
    149 C11        72.8096   62.4621   42.8632 Y2         2 LUT      0.030784
    150 C12        74.0244   63.0414   42.7226 Y3         2 LUT     -0.220316
    151 C13        74.8154   63.0090   41.5190 Y4         2 LUT      0.215937
    152 C14        76.0245   63.7118   41.6051 Y5         2 LUT     -0.185793
    153 C15        77.1352   63.8797   40.6248 Y6         2 LUT     -0.057835
    154 C16        69.0248   60.0328   49.1252 Y7         2 LUT     -0.405615
    155 C17        71.0213   61.5840   49.0687 Y7         2 LUT     -0.405615
    156 C18        67.0892   63.9233   46.9069 Y9         2 LUT     -0.369639
    157 C19        70.2110   61.0609   43.5189 W1         2 LUT     -0.333362
    158 C20        74.2570   62.7330   40.1398 W2         2 LUT     -0.323439
    159 C21        88.1960   65.4593   34.1939 Z1         2 LUT      0.406104
    160 C22        88.9944   65.0459   32.9265 Z2         2 LUT     -0.404965
    161 C23        89.3306   66.1451   31.9429 Z3         2 LUT      0.391255
    162 O23        90.0770   65.7462   30.8027 S1         2 LUT     -0.528210
    163 C24        88.1739   67.1045   31.7145 W6         2 LUT     -0.258361
    164 C25        87.0711   67.2070   32.4668 Z5         2 LUT      0.133546
    165 C26        86.8623   66.2404   33.7595 W8         2 LUT     -0.147008
    166 C27        86.1058   66.8328   34.9739 Z7         2 LUT      0.023843
    167 C28        84.9659   66.3307   35.5825 Z8         2 LUT     -0.216987
    168 C29        84.2542   66.7638   36.8347 Z9         2 LUT      0.206524
    169 C30        83.2305   65.9924   37.3263 Y1         2 LUT     -0.215556
    170 C31        82.4047   66.1337   38.4607 Y2         2 LUT      0.025142
    171 C32        81.2541   65.4579   38.6736 Y3         2 LUT     -0.212209
    172 C33        80.3496   65.6832   39.7510 Y4         2 LUT      0.240937
    173 C34        79.1786   64.9117   39.8618 Y5         2 LUT     -0.218862
    174 C35        78.0885   64.8060   40.8156 Y6         2 LUT     -0.023547
    175 C36        89.0163   66.3807   35.0596 Y7         2 LUT     -0.393485
    176 C37        87.9816   64.2551   35.0604 Y7         2 LUT     -0.393485
    177 C38        85.8961   68.1399   32.0250 Y9         2 LUT     -0.387526
    178 C39        84.8132   68.0097   37.5244 W1         2 LUT     -0.322618
    179 C40        80.7564   66.5892   40.9165 W2         2 LUT     -0.358472
    180 H403       81.7360   66.3848   41.3808 R7         2 LUT      0.097720
    181 H402       80.8407   67.6139   40.6196 R7         2 LUT      0.097720
    182 H401       79.9847   66.6677   41.7256 R7         2 LUT      0.097720
    183 H393       84.3761   67.9625   38.4956 R4         2 LUT      0.082505
    184 H392       85.8703   67.9601   37.6460 R4         2 LUT      0.082505
    185 H391       84.6724   68.9586   37.0219 R4         2 LUT      0.082505
    186 H383       85.3510   67.6798   31.2063 R1         2 LUT      0.104030
    187 H382       85.2083   68.3723   32.9497 R1         2 LUT      0.104030
    188 H381       86.2803   69.0608   31.7270 R1         2 LUT      0.104030
    189 H373       88.9162   63.8329   35.2501 T4         2 LUT      0.089537
    190 H372       87.3629   64.4577   35.9588 T4         2 LUT      0.089537
    191 H371       87.5075   63.4893   34.4809 T4         2 LUT      0.089537
    192 H363       88.5069   66.5398   36.0342 T4         2 LUT      0.089537
    193 H362       90.0172   65.9785   35.1749 T4         2 LUT      0.089537
    194 H361       89.2311   67.2996   34.7675 T4         2 LUT      0.089537
    195 H222       89.9195   64.6073   33.1472 U2         2 LUT      0.127376
    196 H221       88.3036   64.3592   32.4577 U2         2 LUT      0.127376
    197 H203       74.8927   63.0229   39.3633 R7         2 LUT      0.087068
    198 H202       74.0963   61.6691   40.1169 R7         2 LUT      0.087068
    199 H201       73.2843   63.1594   40.0097 R7         2 LUT      0.087068
    200 H193       69.7379   61.7382   42.8188 R4         2 LUT      0.089716
    201 H192       70.8892   60.3661   43.0199 R4         2 LUT      0.089716
    202 H191       69.5521   60.3903   44.0393 R4         2 LUT      0.089716
    203 H183       67.9219   64.6137   46.8354 R1         2 LUT      0.094572
    204 H182       66.9645   63.3812   45.9558 R1         2 LUT      0.094572
    205 H181       66.1298   64.4108   47.1132 R1         2 LUT      0.094572
    206 H173       71.3836   62.5887   48.9702 T4         2 LUT      0.093752
    207 H172       71.3441   61.1722   50.0616 T4         2 LUT      0.093752
    208 H171       71.4652   60.9356   48.3482 T4         2 LUT      0.093752
    209 H163       69.1751   59.5916   50.0907 T4         2 LUT      0.093752
    210 H162       67.9785   59.8238   48.9666 T4         2 LUT      0.093752
    211 H161       69.4812   59.4035   48.3541 T4         2 LUT      0.093752
    212 HO3        67.1358   62.2550   52.4496 Q1         2 LUT      0.300121
    213 H8         71.3387   62.2998   46.6081 U7         2 LUT      0.080784
    214 H7         68.5150   61.9409   45.6452 U6         2 LUT      0.042190
    215 H42        65.7925   63.0144   49.3029 U5         2 LUT      0.145166
    216 H41        66.7920   64.2383   49.5211 U5         2 LUT      0.145166
    217 H35        78.0838   65.4694   41.6450 T3         2 LUT      0.077919
    218 H34        78.8983   64.3095   39.0183 T2         2 LUT      0.073626
    219 H32        81.0839   64.7427   37.8310 T1         2 LUT      0.092510
    220 H31        82.7821   66.8126   39.2017 U9         2 LUT      0.070048
    221 H30        82.9835   65.1271   36.6805 U8         2 LUT      0.085442
    222 H3         66.9165   61.3622   50.4443 U3         2 LUT     -0.031596
    223 H28        84.4294   65.4067   35.1103 U7         2 LUT      0.084728
    224 H27        86.6646   67.6858   35.4090 U6         2 LUT      0.087291
    225 H26        86.1634   65.4646   33.3686 Q6         2 LUT      0.075325
    226 H24        88.2723   67.7460   30.8347 Q5         2 LUT      0.094482
    227 H23        90.1326   66.7398   32.4692 U3         2 LUT     -0.024869
    228 H22        69.4559   61.9199   51.2195 U2         2 LUT      0.127376
    229 H21        69.2217   63.4001   50.1507 U2         2 LUT      0.127376
    230 H15        77.1412   63.1659   39.8046 T3         2 LUT      0.093200
    231 H14        76.2696   64.2130   42.5595 T2         2 LUT      0.068865
    232 H12        74.4102   63.6181   43.5630 T1         2 LUT      0.095507
    233 H11        72.3965   61.9470   42.1222 U9         2 LUT      0.068930
    234 H10        72.7355   62.9012   45.0366 U8         2 LUT      0.083911
    235 H1         89.4256   65.3692   30.1930 Q1         2 LUT      0.297311
@<TRIPOS>BOND
    1     6     1 1
    2     7     2 1
    3     8     3 1
    4     9     4 1
    5    11     4 1
    6    12     6 1
    7    13     9 1
    8    16     9 1
    9    25     5 1
   10    25    16 1
   11    26    10 1
   12    26    17 1
   13    27    18 1
   14    28    14 1
   15    28    19 1
   16    29    12 1
   17    30    13 1
   18    31    24 1
   19    32     1 1
   20    32    25 1
   21    33    21 1
   22    33    26 1
   23    34    22 1
   24    34    27 1
   25    35    23 1
   26    35    28 1
   27    36    12 1
   28    36    24 1
   29    37    13 1
   30    37    15 1
   31    38    31 1
   32    39    20 1
   33    39    32 1
   34    40     2 1
   35    40    33 1
   36    41     3 1
   37    41    34 1
   38    42     4 1
   39    42    35 1
   40    43    38 1
   41    44     5 1
   42    44    17 1
   43    44    39 1
   44    45    10 1
   45    45    18 1
   46    45    40 1
   47    46    19 1
   48    46    41 1
   49    47    14 1
   50    47    16 1
   51    47    42 1
   52    48    38 1
   53    49    48 1
   54    50    49 1
   55    51    50 1
   56    52    51 1
   57    53    51 1
   58    54    53 1
   59    55    54 1
   60    56    55 1
   61    57    56 1
   62    58    56 1
   63    59    58 1
   64    60    59 1
   65    61    60 1
   66    62    61 1
   67    63    61 1
   68    64    27 1
   69    64    46 1
   70    65     5 1
   71    65    10 1
   72    65    64 1
   73    65    14 1
   74    66    23 1
   75    67    23 1
   76    68    23 1
   77    69    22 1
   78    70    22 1
   79    71    22 1
   80    72    21 1
   81    73    21 1
   82    74    21 1
   83    75    20 1
   84    76    20 1
   85    77    20 1
   86    78    15 1
   87    79    15 1
   88    80    15 1
   89    81     8 1
   90    82     8 1
   91    83     8 1
   92    84     7 1
   93    85     7 1
   94    86     6 1
   95    87     6 1
   96    88     3 1
   97    89     3 1
   98    90     1 1
   99    91     1 1
  100    92    63 1
  101    93    63 1
  102    94    63 1
  103    95    62 1
  104    96    62 1
  105    97    62 1
  106    98    60 1
  107    99    60 1
  108   100    59 1
  109   101    59 1
  110   102    58 1
  111   103    58 1
  112   104    57 1
  113   105    57 1
  114   106    57 1
  115   107    55 1
  116   108    55 1
  117   109    54 1
  118   110    54 1
  119   111    53 1
  120   112    53 1
  121   113    19 1
  122   114    18 1
  123   115    17 1
  124   116     9 1
  125   117     2 1
  126   118    52 1
  127   119    52 1
  128   120    52 1
  129   121    51 1
  130   122    50 1
  131   123    50 1
  132   124    49 1
  133   125    49 1
  134   126    48 1
  135   127    48 1
  136   128    43 1
  137   129    43 1
  138   130    43 1
  139   131    39 1
  140   132    32 1
  141   133    31 1
  142   134    61 1
  143   135    56 1
  144   136    24 1
  145   137    24 1
  146   139   138 1
  147   140   139 1
  148   141   140 1
  149   142   140 1
  150   143   142 1
  151   144   138 1
  152   144   143 1
  153   145   144 1
  154   146   145 1
  155   147   146 1
  156   148   147 1
  157   149   148 1
  158   150   149 1
  159   151   150 1
  160   152   151 1
  161   153   152 1
  162   154   138 1
  163   155   138 1
  164   156   143 1
  165   157   147 1
  166   158   151 1
  167   160   159 1
  168   161   160 1
  169   162   161 1
  170   163   161 1
  171   164   163 1
  172   165   159 1
  173   165   164 1
  174   166   165 1
  175   167   166 1
  176   168   167 1
  177   169   168 1
  178   170   169 1
  179   171   170 1
  180   172   171 1
  181   173   172 1
  182   174   153 1
  183   174   173 1
  184   175   159 1
  185   176   159 1
  186   177   164 1
  187   178   168 1
  188   179   172 1
  189   180   179 1
  190   181   179 1
  191   182   179 1
  192   183   178 1
  193   184   178 1
  194   185   178 1
  195   186   177 1
  196   187   177 1
  197   188   177 1
  198   189   176 1
  199   190   176 1
  200   191   176 1
  201   192   175 1
  202   193   175 1
  203   194   175 1
  204   195   160 1
  205   196   160 1
  206   197   158 1
  207   198   158 1
  208   199   158 1
  209   200   157 1
  210   201   157 1
  211   202   157 1
  212   203   156 1
  213   204   156 1
  214   205   156 1
  215   206   155 1
  216   207   155 1
  217   208   155 1
  218   209   154 1
  219   210   154 1
  220   211   154 1
  221   212   141 1
  222   213   146 1
  223   214   145 1
  224   215   142 1
  225   216   142 1
  226   217   174 1
  227   218   173 1
  228   219   171 1
  229   220   170 1
  230   221   169 1
  231   222   140 1
  232   223   167 1
  233   224   166 1
  234   225   165 1
  235   226   163 1
  236   227   161 1
  237   228   139 1
  238   229   139 1
  239   230   153 1
  240   231   152 1
  241   232   150 1
  242   233   149 1
  243   234   148 1
  244   235   162 1
  245   65    153 1
  246   65    174 1
@<TRIPOS>SUBSTRUCTURE
      1 CLA               1 ****               0 ****  **** 
      2 LUT             138 ****               0 ****  **** 
