@<TRIPOS>MOLECULE
Cpptraj generated mol2 file.
  235   246     2     0     0
SMALL
USER_CHARGES


@<TRIPOS>ATOM
      1 CAA        78.4740   58.9651   33.9892 a2         1 CLA     -0.055900
      2 CAB        78.2991   62.3485   43.1496 c8         1 CLA     -0.148500
      3 CAC        71.5258   58.0749   42.5028 a2         1 CLA     -0.012600
      4 CAD        74.5455   56.1271   35.1940 ck         1 CLA      0.398800
      5 NA         77.5170   59.2740   37.4137 ns         1 CLA     -0.225500
      6 CBA        79.7430   58.8809   33.0915 a2         1 CLA     -0.135000
      7 CBB        79.4257   62.6742   43.8263 c0         1 CLA     -0.395200
      8 CBC        71.3877   56.5671   42.2987 a3         1 CLA     -0.037700
      9 CBD        75.9957   56.7325   34.9283 a1         1 CLA     -0.053900
     10 NB         77.2244   60.7078   39.9805 nm         1 CLA     -0.295700
     11 OBD        73.9233   55.4268   34.3675 o2         1 CLA     -0.494600
     12 CGA        80.2592   57.4501   32.7488 c4         1 CLA      0.827000
     13 CGD        77.0348   55.7105   34.5357 c4         1 CLA      0.655300
     14 ND         74.8315   58.1324   38.0784 nm         1 CLA     -0.291600
     15 CED        78.0807   53.6236   35.0116 a3         1 CLA      0.005400
     16 CHA        76.3249   57.6490   36.1356 cs         1 CLA     -0.123800
     17 CHB        79.1109   60.8935   38.4455 aa         1 CLA     -0.291900
     18 CHC        75.8755   60.8824   42.1113 aa         1 CLA     -0.090400
     19 CHD        72.9827   57.9234   39.6150 aa         1 CLA     -0.052000
     20 CMA        80.9709   58.9932   36.7814 a3         1 CLA     -0.230700
     21 CMB        80.3348   62.6147   40.5652 a3         1 CLA     -0.180800
     22 CMC        73.5358   60.2675   44.0708 a3         1 CLA     -0.134000
     23 CMD        71.8328   55.9042   37.2677 a3         1 CLA     -0.141100
     24 C1         81.4605   55.5675   33.3899 a2         1 CLA      0.023000
     25 C1A        77.4679   58.4739   36.3396 ac         1 CLA     -0.015100
     26 C1B        78.4709   61.1879   39.6035 cr         1 CLA      0.054700
     27 C1C        74.7848   60.1125   41.8306 cn         1 CLA     -0.005600
     28 C1D        73.5681   57.6155   38.4102 ap         1 CLA     -0.047300
     29 O1A        80.1212   56.9353   31.6636 o2         1 CLA     -0.610800
     30 O1D        77.7596   55.7261   33.5263 o2         1 CLA     -0.558200
     31 C2         82.0380   55.0574   34.6318 c8         1 CLA     -0.325100
     32 C2A        78.7430   58.5600   35.3974 a1         1 CLA      0.098600
     33 C2B        79.0137   61.9779   40.6899 cb         1 CLA      0.088500
     34 C2C        73.6672   59.7276   42.6773 cb         1 CLA      0.053700
     35 C2D        73.0842   56.7228   37.3479 cb         1 CLA      0.058900
     36 O2A        80.9177   56.8509   33.7646 o1         1 CLA     -0.437200
     37 O2D        77.1404   54.6765   35.4760 o1         1 CLA     -0.357600
     38 C3         83.0105   54.1690   34.4377 c5         1 CLA      0.031200
     39 C3A        79.6082   59.5330   36.2899 a1         1 CLA      0.166800
     40 C3B        78.1998   61.8625   41.7857 cb         1 CLA      0.035000
     41 C3C        72.8141   58.8496   42.0265 cb         1 CLA     -0.089900
     42 C3D        74.1814   56.6865   36.4292 cb         1 CLA     -0.035900
     43 C4         82.6752   52.6519   34.6088 a3         1 CLA     -0.053300
     44 C4A        78.6963   59.9752   37.4360 ac         1 CLA      0.001800
     45 C4B        76.9848   61.1389   41.2774 cn         1 CLA     -0.020900
     46 C4C        73.4623   58.7437   40.6692 cr         1 CLA     -0.044400
     47 C4D        75.2004   57.5514   36.9651 c6         1 CLA     -0.046000
     48 C5         84.4268   54.6308   34.3387 a2         1 CLA     -0.070400
     49 C6         84.7242   55.9367   35.0640 a2         1 CLA      0.043900
     50 C7         84.6255   55.6835   36.5688 a2         1 CLA     -0.150000
     51 C8         84.5484   57.0133   37.4950 a1         1 CLA      0.064200
     52 C9         85.7598   58.0023   37.1700 a3         1 CLA     -0.259300
     53 C10        84.3958   56.5656   38.9923 a2         1 CLA     -0.071900
     54 C11        83.0204   56.6143   39.6814 a2         1 CLA      0.014500
     55 C12        83.2640   56.6515   41.2124 a2         1 CLA     -0.112100
     56 C13        81.9571   56.6817   42.0935 a1         1 CLA      0.089200
     57 C14        81.1496   58.0148   41.9014 a3         1 CLA     -0.239100
     58 C15        82.2026   56.3657   43.6507 a2         1 CLA     -0.102200
     59 C16        82.9734   57.4869   44.3958 a2         1 CLA      0.023900
     60 C17        83.3225   56.9079   45.7892 a2         1 CLA     -0.105700
     61 C18        83.9141   57.9970   46.7067 a1         1 CLA      0.206800
     62 C19        82.8062   58.8059   47.4349 a3         1 CLA     -0.280100
     63 C20        84.8752   57.4020   47.7200 a3         1 CLA     -0.280100
     64 NC         74.6371   59.4667   40.6114 nx         1 CLA     -0.309200
     65 MG         76.0137   59.5312   38.9144 mg         1 CLA      0.895000
     66 HMD3       71.5839   55.4180   38.2222 dc         1 CLA      0.064300
     67 HMD2       71.0224   56.5996   37.0986 dc         1 CLA      0.064300
     68 HMD1       72.0572   55.2532   36.4495 dc         1 CLA      0.064300
     69 HMC3       72.5475   60.0549   44.4564 dc         1 CLA      0.052100
     70 HMC2       74.3660   59.7117   44.6557 dc         1 CLA      0.052100
     71 HMC1       73.6568   61.3344   44.1522 dc         1 CLA      0.052100
     72 HMB3       80.6287   63.1287   39.6548 dc         1 CLA      0.063600
     73 HMB2       80.3207   63.3641   41.3534 dc         1 CLA      0.063600
     74 HMB1       81.0813   61.8752   40.8538 dc         1 CLA      0.063600
     75 HMA3       80.9507   58.0592   37.2289 dc         1 CLA      0.058300
     76 HMA2       81.6036   58.9731   35.8703 dc         1 CLA      0.058300
     77 HMA1       81.4068   59.6849   37.5860 dc         1 CLA      0.058300
     78 HED3       77.7231   53.2265   34.0547 dc         1 CLA      0.079300
     79 HED2       79.1001   53.9564   34.8467 dc         1 CLA      0.079300
     80 HED1       78.1369   52.7317   35.6927 dc         1 CLA      0.079300
     81 HBC3       71.0188   56.5911   41.2555 dc         1 CLA      0.016300
     82 HBC2       72.4433   56.1722   42.3326 dc         1 CLA      0.016300
     83 HBC1       70.6532   56.0879   42.9678 dc         1 CLA      0.016300
     84 HBB2       79.3048   62.9444   44.8906 da         1 CLA      0.183000
     85 HBB1       80.3890   62.6672   43.3897 da         1 CLA      0.183000
     86 HBA2       79.5535   59.4720   32.2005 dc         1 CLA      0.029400
     87 HBA1       80.4650   59.3900   33.7413 dc         1 CLA      0.029400
     88 HAC2       71.4418   58.1119   43.6442 dc         1 CLA      0.029300
     89 HAC1       70.6146   58.6301   42.1752 dc         1 CLA      0.029300
     90 HAA2       77.7433   58.3504   33.3757 dc         1 CLA      0.028700
     91 HAA1       78.2875   59.9768   33.9514 dc         1 CLA      0.028700
     92 H203       85.3728   58.2500   48.1862 dc         1 CLA      0.065600
     93 H202       84.1422   56.8902   48.4000 dc         1 CLA      0.065600
     94 H201       85.6165   56.8187   47.2626 dc         1 CLA      0.065600
     95 H193       83.1833   59.4946   48.2008 dc         1 CLA      0.065600
     96 H192       82.2139   59.3578   46.7129 dc         1 CLA      0.065600
     97 H191       82.1938   58.0051   47.9532 dc         1 CLA      0.065600
     98 H172       82.4119   56.5638   46.1873 dc         1 CLA      0.027600
     99 H171       84.0269   56.0484   45.6767 dc         1 CLA      0.027600
    100 H162       83.8532   57.6566   43.8295 dc         1 CLA      0.002900
    101 H161       82.3055   58.4474   44.5131 dc         1 CLA      0.002900
    102 H152       81.3402   56.1456   44.1888 dc         1 CLA      0.029100
    103 H151       82.8371   55.4511   43.7464 dc         1 CLA      0.029100
    104 H143       80.7583   58.0277   40.8860 dc         1 CLA      0.063600
    105 H142       80.3698   58.2742   42.6066 dc         1 CLA      0.063600
    106 H141       81.9199   58.7560   41.9676 dc         1 CLA      0.063600
    107 H122       83.8010   55.7510   41.5027 dc         1 CLA      0.032500
    108 H121       83.8378   57.5401   41.4179 dc         1 CLA      0.032500
    109 H112       82.5040   57.5068   39.2412 dc         1 CLA      0.006600
    110 H111       82.4259   55.7412   39.4187 dc         1 CLA      0.006600
    111 H102       84.7695   55.5674   39.1654 dc         1 CLA      0.024100
    112 H101       84.9779   57.2975   39.5192 dc         1 CLA      0.024100
    113 HHD        72.0014   57.3992   39.7117 da         1 CLA      0.174300
    114 HHC        75.9075   61.2681   43.1124 da         1 CLA      0.136800
    115 HHB        80.1123   61.3059   38.2114 da         1 CLA      0.138300
    116 HBD        75.8304   57.2323   33.9471 dc         1 CLA      0.107700
    117 HAB        77.4847   62.2749   43.8539 da         1 CLA      0.155200
    118 H93        86.7289   57.6461   37.4865 dc         1 CLA      0.069500
    119 H92        85.8811   58.3989   36.1766 dc         1 CLA      0.069500
    120 H91        85.6288   58.9431   37.6985 dc         1 CLA      0.069500
    121 H8         83.6105   57.5024   37.2398 dc         1 CLA      0.029300
    122 H72        83.7625   55.1534   36.7872 dc         1 CLA      0.044400
    123 H71        85.5707   55.1544   36.9160 dc         1 CLA      0.044400
    124 H62        85.7749   56.2789   34.8561 dc         1 CLA      0.015600
    125 H61        84.0936   56.7494   34.6795 dc         1 CLA      0.015600
    126 H52        84.9038   53.8014   34.9446 dc         1 CLA      0.033200
    127 H51        84.8636   54.7275   33.3561 dc         1 CLA      0.033200
    128 H43        82.9036   52.0597   33.7464 dc         1 CLA      0.037000
    129 H42        83.2100   52.2743   35.5103 dc         1 CLA      0.037000
    130 H41        81.6168   52.4565   34.5715 dc         1 CLA      0.037000
    131 H3A        79.8598   60.3197   35.6389 dc         1 CLA      0.041100
    132 H2A        79.0712   57.5615   35.5478 dc         1 CLA      0.083100
    133 H2         81.7675   55.5493   35.5122 da         1 CLA      0.180900
    134 H18        84.5326   58.6734   46.0758 dc         1 CLA     -0.003900
    135 H13        81.2940   55.8361   41.8221 dc         1 CLA      0.019700
    136 H12        80.6823   54.8000   33.0233 dc         1 CLA      0.120400
    137 H11        82.2723   55.5556   32.5494 dc         1 CLA      0.120400
    138 C1         68.3821   61.9558   50.3471 Z1         2 LUT      0.509236
    139 C2         67.0841   61.7479   51.1186 Z2         2 LUT     -0.434695
    140 C3         66.1189   62.8514   51.1481 Z3         2 LUT      0.437453
    141 O3         65.5407   63.1458   52.3975 S1         2 LUT     -0.547129
    142 C4         66.4677   63.9648   50.2113 Z4         2 LUT     -0.468603
    143 C5         67.2134   63.5683   48.9742 Z5         2 LUT      0.279246
    144 C6         68.1486   62.5866   48.9972 Z6         2 LUT     -0.305473
    145 C7         68.7878   62.0611   47.8373 Z7         2 LUT      0.069402
    146 C8         69.5615   62.7923   46.9805 Z8         2 LUT     -0.191631
    147 C9         70.0929   62.4984   45.6007 Z9         2 LUT      0.196698
    148 C10        71.1575   63.3096   45.1998 Y1         2 LUT     -0.208611
    149 C11        71.9491   63.1861   43.9912 Y2         2 LUT      0.030784
    150 C12        73.0967   63.8244   43.6418 Y3         2 LUT     -0.220316
    151 C13        73.7600   63.8633   42.3608 Y4         2 LUT      0.215937
    152 C14        74.9384   64.4354   42.3346 Y5         2 LUT     -0.185793
    153 C15        75.9951   64.4957   41.3214 Y6         2 LUT     -0.057835
    154 C16        69.0896   60.5334   50.2863 Y7         2 LUT     -0.405615
    155 C17        69.2361   62.7165   51.2990 Y7         2 LUT     -0.405615
    156 C18        66.7594   64.2459   47.7481 Y9         2 LUT     -0.369639
    157 C19        69.5153   61.2822   44.7962 W1         2 LUT     -0.333362
    158 C20        73.0979   63.2223   41.1741 W2         2 LUT     -0.323439
    159 C21        87.2544   65.6995   35.2773 Z1         2 LUT      0.406104
    160 C22        88.0316   65.2518   33.9529 Z2         2 LUT     -0.404965
    161 C23        88.2838   66.3721   32.9346 Z3         2 LUT      0.391255
    162 O23        89.1390   65.9715   31.8912 S1         2 LUT     -0.528210
    163 C24        87.0713   67.1996   32.6821 W6         2 LUT     -0.258361
    164 C25        86.0020   67.2855   33.4655 Z5         2 LUT      0.133546
    165 C26        85.8158   66.4214   34.7452 W8         2 LUT     -0.147008
    166 C27        85.0210   67.1021   35.8011 Z7         2 LUT      0.023843
    167 C28        83.8635   66.6682   36.3385 Z8         2 LUT     -0.216987
    168 C29        83.3405   67.1035   37.6185 Z9         2 LUT      0.206524
    169 C30        82.3130   66.4152   38.1115 Y1         2 LUT     -0.215556
    170 C31        81.5992   66.5558   39.3571 Y2         2 LUT      0.025142
    171 C32        80.3944   65.9115   39.6323 Y3         2 LUT     -0.212209
    172 C33        79.4987   65.9952   40.7728 Y4         2 LUT      0.240937
    173 C34        78.2537   65.3656   40.5643 Y5         2 LUT     -0.218862
    174 C35        77.1487   65.2661   41.5469 Y6         2 LUT     -0.023547
    175 C36        88.1438   66.5186   36.1531 Y7         2 LUT     -0.393485
    176 C37        87.0384   64.4615   36.1116 Y7         2 LUT     -0.393485
    177 C38        84.8003   68.0962   33.1425 Y9         2 LUT     -0.387526
    178 C39        84.0240   68.1310   38.4424 W1         2 LUT     -0.322618
    179 C40        79.8026   66.8551   41.9118 W2         2 LUT     -0.358472
    180 H403       79.0149   67.2632   42.4379 R7         2 LUT      0.097720
    181 H402       80.3694   66.3485   42.6981 R7         2 LUT      0.097720
    182 H401       80.4363   67.6232   41.6247 R7         2 LUT      0.097720
    183 H393       83.4313   69.0436   38.3571 R4         2 LUT      0.082505
    184 H392       84.1284   67.8181   39.4098 R4         2 LUT      0.082505
    185 H391       85.0042   68.4645   38.2515 R4         2 LUT      0.082505
    186 H383       84.2699   67.3022   32.5438 R1         2 LUT      0.104030
    187 H382       84.2874   68.5447   33.9492 R1         2 LUT      0.104030
    188 H381       85.0130   68.9354   32.3919 R1         2 LUT      0.104030
    189 H373       86.2989   64.6980   36.8931 T4         2 LUT      0.089537
    190 H372       86.6910   63.6180   35.4676 T4         2 LUT      0.089537
    191 H371       87.9434   64.1892   36.6077 T4         2 LUT      0.089537
    192 H363       89.0744   66.0174   36.3123 T4         2 LUT      0.089537
    193 H362       88.3693   67.4943   35.7146 T4         2 LUT      0.089537
    194 H361       87.6083   66.6899   37.0658 T4         2 LUT      0.089537
    195 H222       88.9770   64.7752   34.2270 U2         2 LUT      0.127376
    196 H221       87.3831   64.5535   33.3132 U2         2 LUT      0.127376
    197 H203       73.7642   63.0696   40.3433 R7         2 LUT      0.087068
    198 H202       72.8115   62.2081   41.3619 R7         2 LUT      0.087068
    199 H201       72.2425   63.7576   40.9015 R7         2 LUT      0.087068
    200 H193       69.3851   60.3716   45.3881 R4         2 LUT      0.089716
    201 H192       68.5781   61.6306   44.2578 R4         2 LUT      0.089716
    202 H191       70.1147   61.0311   43.9814 R4         2 LUT      0.089716
    203 H183       65.6724   64.3588   47.7552 R1         2 LUT      0.094572
    204 H182       67.3136   65.1689   47.7170 R1         2 LUT      0.094572
    205 H181       67.0906   63.7436   46.7946 R1         2 LUT      0.094572
    206 H173       69.2030   62.2737   52.2919 T4         2 LUT      0.093752
    207 H172       70.2842   62.6859   50.9447 T4         2 LUT      0.093752
    208 H171       68.9502   63.7611   51.4504 T4         2 LUT      0.093752
    209 H163       70.1513   60.5040   49.9963 T4         2 LUT      0.093752
    210 H162       69.0417   60.0063   51.2831 T4         2 LUT      0.093752
    211 H161       68.6013   59.9108   49.6027 T4         2 LUT      0.093752
    212 HO3        66.1431   63.6977   52.9695 Q1         2 LUT      0.300121
    213 H8         69.8250   63.7524   47.3762 U7         2 LUT      0.080784
    214 H7         68.4668   61.1839   47.3373 U6         2 LUT      0.042190
    215 H42        65.5127   64.2645   49.9097 U5         2 LUT      0.145166
    216 H41        67.0879   64.7194   50.7405 U5         2 LUT      0.145166
    217 H35        77.2029   65.9283   42.4152 T3         2 LUT      0.077919
    218 H34        78.0553   64.9512   39.5983 T2         2 LUT      0.073626
    219 H32        80.0954   65.2489   38.8025 T1         2 LUT      0.092510
    220 H31        82.0537   67.2042   40.1198 U9         2 LUT      0.070048
    221 H30        81.8578   65.6248   37.4901 U8         2 LUT      0.085442
    222 H3         65.2337   62.4411   50.7781 U3         2 LUT     -0.031596
    223 H28        83.3657   65.7353   36.0390 U7         2 LUT      0.084728
    224 H27        85.5777   67.9773   36.2862 U6         2 LUT      0.087291
    225 H26        85.3844   65.5360   34.2794 Q6         2 LUT      0.075325
    226 H24        87.0779   67.7717   31.7294 Q5         2 LUT      0.094482
    227 H23        88.8675   67.1280   33.4823 U3         2 LUT     -0.024869
    228 H22        66.6249   60.9785   50.5005 U2         2 LUT      0.127376
    229 H21        67.1496   61.3175   52.1692 U2         2 LUT      0.127376
    230 H15        75.8805   63.9130   40.3871 T3         2 LUT      0.093200
    231 H14        75.2505   64.8695   43.3652 T2         2 LUT      0.068865
    232 H12        73.5640   64.2654   44.4921 T1         2 LUT      0.095507
    233 H11        71.4241   62.5467   43.2538 U9         2 LUT      0.068930
    234 H10        71.5473   64.1195   45.8600 U8         2 LUT      0.083911
    235 H1         88.5640   65.5408   31.2017 Q1         2 LUT      0.297311
@<TRIPOS>BOND
    1     6     1 1
    2     7     2 1
    3     8     3 1
    4     9     4 1
    5    11     4 1
    6    12     6 1
    7    13     9 1
    8    16     9 1
    9    25     5 1
   10    25    16 1
   11    26    10 1
   12    26    17 1
   13    27    18 1
   14    28    14 1
   15    28    19 1
   16    29    12 1
   17    30    13 1
   18    31    24 1
   19    32     1 1
   20    32    25 1
   21    33    21 1
   22    33    26 1
   23    34    22 1
   24    34    27 1
   25    35    23 1
   26    35    28 1
   27    36    12 1
   28    36    24 1
   29    37    13 1
   30    37    15 1
   31    38    31 1
   32    39    20 1
   33    39    32 1
   34    40     2 1
   35    40    33 1
   36    41     3 1
   37    41    34 1
   38    42     4 1
   39    42    35 1
   40    43    38 1
   41    44     5 1
   42    44    17 1
   43    44    39 1
   44    45    10 1
   45    45    18 1
   46    45    40 1
   47    46    19 1
   48    46    41 1
   49    47    14 1
   50    47    16 1
   51    47    42 1
   52    48    38 1
   53    49    48 1
   54    50    49 1
   55    51    50 1
   56    52    51 1
   57    53    51 1
   58    54    53 1
   59    55    54 1
   60    56    55 1
   61    57    56 1
   62    58    56 1
   63    59    58 1
   64    60    59 1
   65    61    60 1
   66    62    61 1
   67    63    61 1
   68    64    27 1
   69    64    46 1
   70    65     5 1
   71    65    10 1
   72    65    64 1
   73    65    14 1
   74    66    23 1
   75    67    23 1
   76    68    23 1
   77    69    22 1
   78    70    22 1
   79    71    22 1
   80    72    21 1
   81    73    21 1
   82    74    21 1
   83    75    20 1
   84    76    20 1
   85    77    20 1
   86    78    15 1
   87    79    15 1
   88    80    15 1
   89    81     8 1
   90    82     8 1
   91    83     8 1
   92    84     7 1
   93    85     7 1
   94    86     6 1
   95    87     6 1
   96    88     3 1
   97    89     3 1
   98    90     1 1
   99    91     1 1
  100    92    63 1
  101    93    63 1
  102    94    63 1
  103    95    62 1
  104    96    62 1
  105    97    62 1
  106    98    60 1
  107    99    60 1
  108   100    59 1
  109   101    59 1
  110   102    58 1
  111   103    58 1
  112   104    57 1
  113   105    57 1
  114   106    57 1
  115   107    55 1
  116   108    55 1
  117   109    54 1
  118   110    54 1
  119   111    53 1
  120   112    53 1
  121   113    19 1
  122   114    18 1
  123   115    17 1
  124   116     9 1
  125   117     2 1
  126   118    52 1
  127   119    52 1
  128   120    52 1
  129   121    51 1
  130   122    50 1
  131   123    50 1
  132   124    49 1
  133   125    49 1
  134   126    48 1
  135   127    48 1
  136   128    43 1
  137   129    43 1
  138   130    43 1
  139   131    39 1
  140   132    32 1
  141   133    31 1
  142   134    61 1
  143   135    56 1
  144   136    24 1
  145   137    24 1
  146   139   138 1
  147   140   139 1
  148   141   140 1
  149   142   140 1
  150   143   142 1
  151   144   138 1
  152   144   143 1
  153   145   144 1
  154   146   145 1
  155   147   146 1
  156   148   147 1
  157   149   148 1
  158   150   149 1
  159   151   150 1
  160   152   151 1
  161   153   152 1
  162   154   138 1
  163   155   138 1
  164   156   143 1
  165   157   147 1
  166   158   151 1
  167   160   159 1
  168   161   160 1
  169   162   161 1
  170   163   161 1
  171   164   163 1
  172   165   159 1
  173   165   164 1
  174   166   165 1
  175   167   166 1
  176   168   167 1
  177   169   168 1
  178   170   169 1
  179   171   170 1
  180   172   171 1
  181   173   172 1
  182   174   153 1
  183   174   173 1
  184   175   159 1
  185   176   159 1
  186   177   164 1
  187   178   168 1
  188   179   172 1
  189   180   179 1
  190   181   179 1
  191   182   179 1
  192   183   178 1
  193   184   178 1
  194   185   178 1
  195   186   177 1
  196   187   177 1
  197   188   177 1
  198   189   176 1
  199   190   176 1
  200   191   176 1
  201   192   175 1
  202   193   175 1
  203   194   175 1
  204   195   160 1
  205   196   160 1
  206   197   158 1
  207   198   158 1
  208   199   158 1
  209   200   157 1
  210   201   157 1
  211   202   157 1
  212   203   156 1
  213   204   156 1
  214   205   156 1
  215   206   155 1
  216   207   155 1
  217   208   155 1
  218   209   154 1
  219   210   154 1
  220   211   154 1
  221   212   141 1
  222   213   146 1
  223   214   145 1
  224   215   142 1
  225   216   142 1
  226   217   174 1
  227   218   173 1
  228   219   171 1
  229   220   170 1
  230   221   169 1
  231   222   140 1
  232   223   167 1
  233   224   166 1
  234   225   165 1
  235   226   163 1
  236   227   161 1
  237   228   139 1
  238   229   139 1
  239   230   153 1
  240   231   152 1
  241   232   150 1
  242   233   149 1
  243   234   148 1
  244   235   162 1
  245   65    153 1
  246   65    174 1
@<TRIPOS>SUBSTRUCTURE
      1 CLA               1 ****               0 ****  **** 
      2 LUT             138 ****               0 ****  **** 
