@<TRIPOS>MOLECULE
Cpptraj generated mol2 file.
  235   246     2     0     0
SMALL
USER_CHARGES


@<TRIPOS>ATOM
      1 CAA        79.3316   59.1972   34.3567 a2         1 CLA     -0.055900
      2 CAB        78.8577   62.2924   43.7410 c8         1 CLA     -0.148500
      3 CAC        72.2532   58.0389   42.8456 a2         1 CLA     -0.012600
      4 CAD        74.9924   56.9550   34.9373 ck         1 CLA      0.398800
      5 NA         78.0208   59.6152   37.6946 ns         1 CLA     -0.225500
      6 CBA        80.6497   59.2056   33.6320 a2         1 CLA     -0.135000
      7 CBB        79.9515   62.0425   44.4401 c0         1 CLA     -0.395200
      8 CBC        72.7003   56.6215   43.3452 a3         1 CLA     -0.037700
      9 CBD        76.5023   57.3700   34.8904 a1         1 CLA     -0.053900
     10 NB         77.7990   60.8272   40.4508 nm         1 CLA     -0.295700
     11 OBD        74.3293   56.3354   34.1235 o2         1 CLA     -0.494600
     12 CGA        81.2167   57.8032   33.2417 c4         1 CLA      0.827000
     13 CGD        77.3212   56.0843   34.7548 c4         1 CLA      0.655300
     14 ND         75.2551   58.5829   38.1456 nm         1 CLA     -0.291600
     15 CED        77.5713   54.1433   33.4352 a3         1 CLA      0.005400
     16 CHA        76.7669   58.2078   36.1816 cs         1 CLA     -0.123800
     17 CHB        79.7974   60.8734   38.9175 aa         1 CLA     -0.291900
     18 CHC        76.4333   60.8791   42.4280 aa         1 CLA     -0.090400
     19 CHD        73.3466   58.2340   39.7019 aa         1 CLA     -0.052000
     20 CMA        81.6200   58.9977   37.1444 a3         1 CLA     -0.230700
     21 CMB        81.0606   62.2787   41.3328 a3         1 CLA     -0.180800
     22 CMC        74.4101   59.8924   44.4856 a3         1 CLA     -0.134000
     23 CMD        72.0433   56.8794   37.0051 a3         1 CLA     -0.141100
     24 C1         81.7944   55.5639   34.1058 a2         1 CLA      0.023000
     25 C1A        77.9126   58.8796   36.5350 ac         1 CLA     -0.015100
     26 C1B        79.0771   61.2380   40.1224 cr         1 CLA      0.054700
     27 C1C        75.3320   60.1570   42.1084 cn         1 CLA     -0.005600
     28 C1D        74.0168   58.0772   38.3946 ap         1 CLA     -0.047300
     29 O1A        81.2929   57.4018   32.0646 o2         1 CLA     -0.610800
     30 O1D        78.1049   55.6755   35.5579 o2         1 CLA     -0.558200
     31 C2         82.5173   54.9960   35.2922 c8         1 CLA     -0.325100
     32 C2A        79.3444   58.7294   35.8341 a1         1 CLA      0.098600
     33 C2B        79.6526   61.8578   41.2867 cb         1 CLA      0.088500
     34 C2C        74.3623   59.6664   42.9985 cb         1 CLA      0.053700
     35 C2D        73.4656   57.4212   37.2170 cb         1 CLA      0.058900
     36 O2A        81.5669   56.9990   34.3281 o1         1 CLA     -0.437200
     37 O2D        77.0656   55.5089   33.5505 o1         1 CLA     -0.357600
     38 C3         83.5616   54.1736   35.3286 c5         1 CLA      0.031200
     39 C3A        80.2629   59.6749   36.6678 a1         1 CLA      0.166800
     40 C3B        78.7191   61.9042   42.3037 cb         1 CLA      0.035000
     41 C3C        73.3935   58.8978   42.2584 cb         1 CLA     -0.089900
     42 C3D        74.5565   57.3657   36.3123 cb         1 CLA     -0.035900
     43 C4         83.3238   52.6960   35.5843 a3         1 CLA     -0.053300
     44 C4A        79.3323   60.1415   37.8158 ac         1 CLA      0.001800
     45 C4B        77.5262   61.2190   41.6995 cn         1 CLA     -0.020900
     46 C4C        73.9155   58.8454   40.8548 cr         1 CLA     -0.044400
     47 C4D        75.6154   58.0841   36.9336 c6         1 CLA     -0.046000
     48 C5         84.9286   54.8076   35.1684 a2         1 CLA     -0.070400
     49 C6         85.2873   56.1409   35.7979 a2         1 CLA      0.043900
     50 C7         85.2665   56.1686   37.2637 a2         1 CLA     -0.150000
     51 C8         85.3791   57.5802   38.0002 a1         1 CLA      0.064200
     52 C9         86.5708   58.4717   37.5813 a3         1 CLA     -0.259300
     53 C10        85.2711   57.3808   39.5227 a2         1 CLA     -0.071900
     54 C11        85.0282   58.6753   40.2803 a2         1 CLA      0.014500
     55 C12        84.8361   58.3996   41.7718 a2         1 CLA     -0.112100
     56 C13        84.6691   59.6273   42.6995 a1         1 CLA      0.089200
     57 C14        85.9368   60.4940   42.7722 a3         1 CLA     -0.239100
     58 C15        84.3033   59.2454   44.1975 a2         1 CLA     -0.102200
     59 C16        83.0127   58.4769   44.3997 a2         1 CLA      0.023900
     60 C17        82.4891   58.1356   45.8357 a2         1 CLA     -0.105700
     61 C18        83.4489   57.3910   46.8311 a1         1 CLA      0.206800
     62 C19        83.2512   57.7574   48.3042 a3         1 CLA     -0.280100
     63 C20        83.2854   55.9093   46.5766 a3         1 CLA     -0.280100
     64 NC         75.1085   59.6259   40.8373 nx         1 CLA     -0.309200
     65 MG         76.4949   59.7830   39.2093 mg         1 CLA      0.895000
     66 HMD3       72.0633   55.8111   37.1541 dc         1 CLA      0.064300
     67 HMD2       71.3346   57.4037   37.6475 dc         1 CLA      0.064300
     68 HMD1       71.7363   57.1339   36.0216 dc         1 CLA      0.064300
     69 HMC3       74.3317   60.9628   44.7367 dc         1 CLA      0.052100
     70 HMC2       73.5581   59.5376   45.1211 dc         1 CLA      0.052100
     71 HMC1       75.3850   59.5884   44.8480 dc         1 CLA      0.052100
     72 HMB3       81.2522   62.9541   40.5077 dc         1 CLA      0.063600
     73 HMB2       81.1851   62.7903   42.2727 dc         1 CLA      0.063600
     74 HMB1       81.6848   61.4081   41.2373 dc         1 CLA      0.063600
     75 HMA3       82.2289   58.8257   36.2187 dc         1 CLA      0.058300
     76 HMA2       81.8463   59.7435   37.8303 dc         1 CLA      0.058300
     77 HMA1       81.3306   58.0707   37.6850 dc         1 CLA      0.058300
     78 HED3       77.5200   53.8553   32.3961 dc         1 CLA      0.079300
     79 HED2       78.5919   54.1474   33.6943 dc         1 CLA      0.079300
     80 HED1       77.0898   53.4412   34.1203 dc         1 CLA      0.079300
     81 HBC3       73.0205   56.0532   42.5516 dc         1 CLA      0.016300
     82 HBC2       73.5339   56.7013   44.0827 dc         1 CLA      0.016300
     83 HBC1       71.9375   55.9650   43.7070 dc         1 CLA      0.016300
     84 HBB2       79.8448   62.1026   45.5686 da         1 CLA      0.183000
     85 HBB1       80.8873   61.5815   44.0473 da         1 CLA      0.183000
     86 HBA2       80.5572   59.7871   32.7030 dc         1 CLA      0.029400
     87 HBA1       81.4162   59.7014   34.2962 dc         1 CLA      0.029400
     88 HAC2       71.8270   58.4484   43.7679 dc         1 CLA      0.029300
     89 HAC1       71.4391   58.0301   42.0742 dc         1 CLA      0.029300
     90 HAA2       78.8347   58.3810   33.9039 dc         1 CLA      0.028700
     91 HAA1       78.8107   60.1016   34.1631 dc         1 CLA      0.028700
     92 H203       83.9192   55.2691   47.2121 dc         1 CLA      0.065600
     93 H202       82.1974   55.6584   46.8005 dc         1 CLA      0.065600
     94 H201       83.4934   55.7739   45.4937 dc         1 CLA      0.065600
     95 H193       83.5679   56.9545   48.9235 dc         1 CLA      0.065600
     96 H192       83.8474   58.6456   48.6193 dc         1 CLA      0.065600
     97 H191       82.1772   57.8954   48.5705 dc         1 CLA      0.065600
     98 H172       82.2088   59.0801   46.2808 dc         1 CLA      0.027600
     99 H171       81.5686   57.5734   45.7351 dc         1 CLA      0.027600
    100 H162       82.2059   59.0727   43.9645 dc         1 CLA      0.002900
    101 H161       83.0083   57.5803   43.8227 dc         1 CLA      0.002900
    102 H152       85.1782   58.6507   44.5417 dc         1 CLA      0.029100
    103 H151       84.3787   60.2446   44.6477 dc         1 CLA      0.029100
    104 H143       86.3769   60.6699   41.8164 dc         1 CLA      0.063600
    105 H142       85.6949   61.5038   43.2319 dc         1 CLA      0.063600
    106 H141       86.7484   59.9265   43.2787 dc         1 CLA      0.063600
    107 H122       83.9418   57.7040   41.9080 dc         1 CLA      0.032500
    108 H121       85.6626   57.8106   42.1351 dc         1 CLA      0.032500
    109 H112       85.8331   59.4227   40.1205 dc         1 CLA      0.006600
    110 H111       84.1819   59.1332   39.8063 dc         1 CLA      0.006600
    111 H102       84.3613   56.7831   39.7898 dc         1 CLA      0.024100
    112 H101       86.2241   56.8146   39.7783 dc         1 CLA      0.024100
    113 HHD        72.4501   57.6649   39.6084 da         1 CLA      0.174300
    114 HHC        76.5534   61.1916   43.5177 da         1 CLA      0.136800
    115 HHB        80.8534   61.1727   38.7542 da         1 CLA      0.138300
    116 HBD        76.5899   57.9933   34.0537 dc         1 CLA      0.107700
    117 HAB        77.9576   62.6426   44.2816 da         1 CLA      0.155200
    118 H93        87.5359   58.1490   37.9334 dc         1 CLA      0.069500
    119 H92        86.5780   58.6462   36.4878 dc         1 CLA      0.069500
    120 H91        86.4442   59.3979   38.0604 dc         1 CLA      0.069500
    121 H8         84.4290   58.1724   37.7108 dc         1 CLA      0.029300
    122 H72        84.4284   55.5527   37.6168 dc         1 CLA      0.044400
    123 H71        86.1277   55.6211   37.6848 dc         1 CLA      0.044400
    124 H62        86.2931   56.3397   35.4337 dc         1 CLA      0.015600
    125 H61        84.6759   57.0068   35.5507 dc         1 CLA      0.015600
    126 H52        85.6318   54.0212   35.5303 dc         1 CLA      0.033200
    127 H51        85.1506   54.7057   34.1283 dc         1 CLA      0.033200
    128 H43        83.0990   52.7844   36.6885 dc         1 CLA      0.037000
    129 H42        82.3541   52.2730   35.1983 dc         1 CLA      0.037000
    130 H41        84.2413   52.1650   35.3291 dc         1 CLA      0.037000
    131 H3A        80.5429   60.5613   36.0101 dc         1 CLA      0.041100
    132 H2A        79.7344   57.7178   35.9443 dc         1 CLA      0.083100
    133 H2         82.3998   55.4440   36.2917 da         1 CLA      0.180900
    134 H18        84.5157   57.5356   46.5787 dc         1 CLA     -0.003900
    135 H13        83.9958   60.3739   42.3523 dc         1 CLA      0.019700
    136 H12        80.9874   54.8833   33.8026 dc         1 CLA      0.120400
    137 H11        82.4368   55.5792   33.2538 dc         1 CLA      0.120400
    138 C1         69.3130   61.5608   50.4433 Z1         2 LUT      0.509236
    139 C2         68.9863   62.4502   51.6074 Z2         2 LUT     -0.434695
    140 C3         67.4893   62.7988   51.6782 Z3         2 LUT      0.437453
    141 O3         67.2681   63.6646   52.8530 S1         2 LUT     -0.547129
    142 C4         67.2517   63.6074   50.3828 Z4         2 LUT     -0.468603
    143 C5         67.8057   63.1395   49.0681 Z5         2 LUT      0.279246
    144 C6         68.7676   62.1312   49.0789 Z6         2 LUT     -0.305473
    145 C7         69.4956   61.7400   47.8711 Z7         2 LUT      0.069402
    146 C8         70.3148   62.4500   47.0461 Z8         2 LUT     -0.191631
    147 C9         70.9094   62.1263   45.7560 Z9         2 LUT      0.196698
    148 C10        71.8836   62.9769   45.2116 Y1         2 LUT     -0.208611
    149 C11        72.4955   62.8341   43.8702 Y2         2 LUT      0.030784
    150 C12        73.6554   63.5593   43.5879 Y3         2 LUT     -0.220316
    151 C13        74.5240   63.5258   42.4018 Y4         2 LUT      0.215937
    152 C14        75.7503   64.1762   42.3699 Y5         2 LUT     -0.185793
    153 C15        76.7385   64.2946   41.4072 Y6         2 LUT     -0.057835
    154 C16        68.7285   60.1708   50.5826 Y7         2 LUT     -0.405615
    155 C17        70.9106   61.4611   50.3576 Y7         2 LUT     -0.405615
    156 C18        67.5452   64.1127   47.9519 Y9         2 LUT     -0.369639
    157 C19        70.4620   60.8820   44.9589 W1         2 LUT     -0.333362
    158 C20        73.8928   63.0379   41.1074 W2         2 LUT     -0.323439
    159 C21        88.2997   66.2989   35.4812 Z1         2 LUT      0.406104
    160 C22        88.8746   65.8003   34.1560 Z2         2 LUT     -0.404965
    161 C23        88.7954   66.7672   32.9433 Z3         2 LUT      0.391255
    162 O23        88.9154   65.9608   31.7864 S1         2 LUT     -0.528210
    163 C24        87.3649   67.4293   32.8403 W6         2 LUT     -0.258361
    164 C25        86.4586   67.4023   33.8826 Z5         2 LUT      0.133546
    165 C26        86.7586   66.6171   35.2267 W8         2 LUT     -0.147008
    166 C27        86.0821   67.2069   36.4947 Z7         2 LUT      0.023843
    167 C28        84.8871   66.8530   37.0780 Z8         2 LUT     -0.216987
    168 C29        84.2009   67.3260   38.2850 Z9         2 LUT      0.206524
    169 C30        82.9641   66.6927   38.5726 Y1         2 LUT     -0.215556
    170 C31        82.0677   66.9242   39.6547 Y2         2 LUT      0.025142
    171 C32        81.0923   66.0283   40.0402 Y3         2 LUT     -0.212209
    172 C33        80.0046   66.1297   41.0268 Y4         2 LUT      0.240937
    173 C34        78.9678   65.2497   40.9232 Y5         2 LUT     -0.218862
    174 C35        77.7822   65.1153   41.7079 Y6         2 LUT     -0.023547
    175 C36        89.1794   67.4629   35.8863 Y7         2 LUT     -0.393485
    176 C37        88.4040   65.2247   36.4849 Y7         2 LUT     -0.393485
    177 C38        85.1295   68.1205   33.6824 Y9         2 LUT     -0.387526
    178 C39        84.8062   68.3311   39.2475 W1         2 LUT     -0.322618
    179 C40        80.4399   66.7200   42.3484 W2         2 LUT     -0.358472
    180 H403       81.4574   66.9512   42.3366 R7         2 LUT      0.097720
    181 H402       79.7200   67.4865   42.6807 R7         2 LUT      0.097720
    182 H401       80.3236   65.9033   43.0865 R7         2 LUT      0.097720
    183 H393       85.8150   68.1567   39.5750 R4         2 LUT      0.082505
    184 H392       84.8448   69.3749   38.8745 R4         2 LUT      0.082505
    185 H391       84.3177   68.4719   40.2143 R4         2 LUT      0.082505
    186 H383       85.2936   68.9961   33.0546 R1         2 LUT      0.104030
    187 H382       84.3533   67.5653   33.0824 R1         2 LUT      0.104030
    188 H381       84.7942   68.5207   34.6281 R1         2 LUT      0.104030
    189 H373       89.4342   65.0112   36.7313 T4         2 LUT      0.089537
    190 H372       87.8151   65.4631   37.3971 T4         2 LUT      0.089537
    191 H371       88.0732   64.3064   35.9408 T4         2 LUT      0.089537
    192 H363       89.0533   67.7247   36.9417 T4         2 LUT      0.089537
    193 H362       90.2290   67.2087   35.6453 T4         2 LUT      0.089537
    194 H361       88.9582   68.3564   35.3039 T4         2 LUT      0.089537
    195 H222       89.8788   65.3861   34.2792 U2         2 LUT      0.127376
    196 H221       88.3242   64.9326   33.7650 U2         2 LUT      0.127376
    197 H203       74.5721   62.6706   40.3859 R7         2 LUT      0.087068
    198 H202       73.2382   62.1483   41.1997 R7         2 LUT      0.087068
    199 H201       73.2428   63.7582   40.6542 R7         2 LUT      0.087068
    200 H193       70.5583   61.0091   43.8507 R4         2 LUT      0.089716
    201 H192       70.9930   60.0203   45.3495 R4         2 LUT      0.089716
    202 H191       69.4205   60.7104   45.2095 R4         2 LUT      0.089716
    203 H183       66.4825   64.5318   47.9518 R1         2 LUT      0.094572
    204 H182       68.2664   64.9233   48.0254 R1         2 LUT      0.094572
    205 H181       67.7047   63.5382   47.0052 R1         2 LUT      0.094572
    206 H173       71.2859   61.0339   51.3127 T4         2 LUT      0.093752
    207 H172       71.3168   60.7860   49.5932 T4         2 LUT      0.093752
    208 H171       71.3708   62.4147   50.1358 T4         2 LUT      0.093752
    209 H163       67.7432   60.1920   51.0228 T4         2 LUT      0.093752
    210 H162       68.7629   59.6961   49.6212 T4         2 LUT      0.093752
    211 H161       69.4443   59.6157   51.2700 T4         2 LUT      0.093752
    212 HO3        66.8063   63.1978   53.5718 Q1         2 LUT      0.300121
    213 H8         70.7330   63.3945   47.3799 U7         2 LUT      0.080784
    214 H7         69.3770   60.7108   47.4875 U6         2 LUT      0.042190
    215 H42        66.1894   63.8316   50.2746 U5         2 LUT      0.145166
    216 H41        67.8827   64.5272   50.5551 U5         2 LUT      0.145166
    217 H35        77.9149   65.6416   42.6928 T3         2 LUT      0.077919
    218 H34        78.9389   64.7032   39.9546 T2         2 LUT      0.073626
    219 H32        80.8905   65.2197   39.3295 T1         2 LUT      0.092510
    220 H31        82.2611   67.7171   40.3636 U9         2 LUT      0.070048
    221 H30        82.6466   66.0156   37.7397 U8         2 LUT      0.085442
    222 H3         66.9722   61.8156   51.6947 U3         2 LUT     -0.031596
    223 H28        84.2784   66.1434   36.5242 U7         2 LUT      0.084728
    224 H27        86.6332   68.0009   37.0029 U6         2 LUT      0.087291
    225 H26        86.2886   65.6191   34.9379 Q6         2 LUT      0.075325
    226 H24        87.1041   67.8947   31.8928 Q5         2 LUT      0.094482
    227 H23        89.4420   67.6353   32.9960 U3         2 LUT     -0.024869
    228 H22        69.2579   61.9792   52.5564 U2         2 LUT      0.127376
    229 H21        69.6087   63.3099   51.7162 U2         2 LUT      0.127376
    230 H15        76.5654   63.7849   40.4579 T3         2 LUT      0.093200
    231 H14        75.9312   64.5394   43.3358 T2         2 LUT      0.068865
    232 H12        74.0762   64.2428   44.3526 T1         2 LUT      0.095507
    233 H11        72.1322   62.1662   43.0640 U9         2 LUT      0.068930
    234 H10        72.3243   63.7995   45.7741 U8         2 LUT      0.083911
    235 H1         88.8381   66.5026   30.9963 Q1         2 LUT      0.297311
@<TRIPOS>BOND
    1     6     1 1
    2     7     2 1
    3     8     3 1
    4     9     4 1
    5    11     4 1
    6    12     6 1
    7    13     9 1
    8    16     9 1
    9    25     5 1
   10    25    16 1
   11    26    10 1
   12    26    17 1
   13    27    18 1
   14    28    14 1
   15    28    19 1
   16    29    12 1
   17    30    13 1
   18    31    24 1
   19    32     1 1
   20    32    25 1
   21    33    21 1
   22    33    26 1
   23    34    22 1
   24    34    27 1
   25    35    23 1
   26    35    28 1
   27    36    12 1
   28    36    24 1
   29    37    13 1
   30    37    15 1
   31    38    31 1
   32    39    20 1
   33    39    32 1
   34    40     2 1
   35    40    33 1
   36    41     3 1
   37    41    34 1
   38    42     4 1
   39    42    35 1
   40    43    38 1
   41    44     5 1
   42    44    17 1
   43    44    39 1
   44    45    10 1
   45    45    18 1
   46    45    40 1
   47    46    19 1
   48    46    41 1
   49    47    14 1
   50    47    16 1
   51    47    42 1
   52    48    38 1
   53    49    48 1
   54    50    49 1
   55    51    50 1
   56    52    51 1
   57    53    51 1
   58    54    53 1
   59    55    54 1
   60    56    55 1
   61    57    56 1
   62    58    56 1
   63    59    58 1
   64    60    59 1
   65    61    60 1
   66    62    61 1
   67    63    61 1
   68    64    27 1
   69    64    46 1
   70    65     5 1
   71    65    10 1
   72    65    64 1
   73    65    14 1
   74    66    23 1
   75    67    23 1
   76    68    23 1
   77    69    22 1
   78    70    22 1
   79    71    22 1
   80    72    21 1
   81    73    21 1
   82    74    21 1
   83    75    20 1
   84    76    20 1
   85    77    20 1
   86    78    15 1
   87    79    15 1
   88    80    15 1
   89    81     8 1
   90    82     8 1
   91    83     8 1
   92    84     7 1
   93    85     7 1
   94    86     6 1
   95    87     6 1
   96    88     3 1
   97    89     3 1
   98    90     1 1
   99    91     1 1
  100    92    63 1
  101    93    63 1
  102    94    63 1
  103    95    62 1
  104    96    62 1
  105    97    62 1
  106    98    60 1
  107    99    60 1
  108   100    59 1
  109   101    59 1
  110   102    58 1
  111   103    58 1
  112   104    57 1
  113   105    57 1
  114   106    57 1
  115   107    55 1
  116   108    55 1
  117   109    54 1
  118   110    54 1
  119   111    53 1
  120   112    53 1
  121   113    19 1
  122   114    18 1
  123   115    17 1
  124   116     9 1
  125   117     2 1
  126   118    52 1
  127   119    52 1
  128   120    52 1
  129   121    51 1
  130   122    50 1
  131   123    50 1
  132   124    49 1
  133   125    49 1
  134   126    48 1
  135   127    48 1
  136   128    43 1
  137   129    43 1
  138   130    43 1
  139   131    39 1
  140   132    32 1
  141   133    31 1
  142   134    61 1
  143   135    56 1
  144   136    24 1
  145   137    24 1
  146   139   138 1
  147   140   139 1
  148   141   140 1
  149   142   140 1
  150   143   142 1
  151   144   138 1
  152   144   143 1
  153   145   144 1
  154   146   145 1
  155   147   146 1
  156   148   147 1
  157   149   148 1
  158   150   149 1
  159   151   150 1
  160   152   151 1
  161   153   152 1
  162   154   138 1
  163   155   138 1
  164   156   143 1
  165   157   147 1
  166   158   151 1
  167   160   159 1
  168   161   160 1
  169   162   161 1
  170   163   161 1
  171   164   163 1
  172   165   159 1
  173   165   164 1
  174   166   165 1
  175   167   166 1
  176   168   167 1
  177   169   168 1
  178   170   169 1
  179   171   170 1
  180   172   171 1
  181   173   172 1
  182   174   153 1
  183   174   173 1
  184   175   159 1
  185   176   159 1
  186   177   164 1
  187   178   168 1
  188   179   172 1
  189   180   179 1
  190   181   179 1
  191   182   179 1
  192   183   178 1
  193   184   178 1
  194   185   178 1
  195   186   177 1
  196   187   177 1
  197   188   177 1
  198   189   176 1
  199   190   176 1
  200   191   176 1
  201   192   175 1
  202   193   175 1
  203   194   175 1
  204   195   160 1
  205   196   160 1
  206   197   158 1
  207   198   158 1
  208   199   158 1
  209   200   157 1
  210   201   157 1
  211   202   157 1
  212   203   156 1
  213   204   156 1
  214   205   156 1
  215   206   155 1
  216   207   155 1
  217   208   155 1
  218   209   154 1
  219   210   154 1
  220   211   154 1
  221   212   141 1
  222   213   146 1
  223   214   145 1
  224   215   142 1
  225   216   142 1
  226   217   174 1
  227   218   173 1
  228   219   171 1
  229   220   170 1
  230   221   169 1
  231   222   140 1
  232   223   167 1
  233   224   166 1
  234   225   165 1
  235   226   163 1
  236   227   161 1
  237   228   139 1
  238   229   139 1
  239   230   153 1
  240   231   152 1
  241   232   150 1
  242   233   149 1
  243   234   148 1
  244   235   162 1
  245   65    153 1
  246   65    174 1
@<TRIPOS>SUBSTRUCTURE
      1 CLA               1 ****               0 ****  **** 
      2 LUT             138 ****               0 ****  **** 
