@<TRIPOS>MOLECULE
Cpptraj generated mol2 file.
  235   246     2     0     0
SMALL
USER_CHARGES


@<TRIPOS>ATOM
      1 CAA        77.8832   56.5523   34.1144 a2         1 CLA     -0.055900
      2 CAB        78.3310   60.7306   42.6280 c8         1 CLA     -0.148500
      3 CAC        71.0578   57.4503   42.5412 a2         1 CLA     -0.012600
      4 CAD        73.3417   54.6095   35.3569 ck         1 CLA      0.398800
      5 NA         76.9283   57.1648   37.4197 ns         1 CLA     -0.225500
      6 CBA        79.0341   56.0956   33.1559 a2         1 CLA     -0.135000
      7 CBB        79.5648   61.0985   43.1080 c0         1 CLA     -0.395200
      8 CBC        71.1118   55.9753   43.0203 a3         1 CLA     -0.037700
      9 CBD        74.8784   54.7391   35.2542 a1         1 CLA     -0.053900
     10 NB         76.8904   58.8303   39.8226 nm         1 CLA     -0.295700
     11 OBD        72.5739   54.0892   34.6188 o2         1 CLA     -0.494600
     12 CGA        79.1996   54.5640   32.9086 c4         1 CLA      0.827000
     13 CGD        75.4503   53.3728   35.3556 c4         1 CLA      0.655300
     14 ND         74.0680   56.6330   38.2082 nm         1 CLA     -0.291600
     15 CED        75.3981   51.3580   36.7898 a3         1 CLA      0.005400
     16 CHA        75.3797   55.7667   36.2998 cs         1 CLA     -0.123800
     17 CHB        78.7655   58.5801   38.2445 aa         1 CLA     -0.291900
     18 CHC        75.7415   59.2563   41.9888 aa         1 CLA     -0.090400
     19 CHD        72.1951   56.8694   39.7758 aa         1 CLA     -0.052000
     20 CMA        80.3383   56.3281   36.6932 a3         1 CLA     -0.230700
     21 CMB        80.0358   60.7394   39.8395 a3         1 CLA     -0.180800
     22 CMC        73.5165   59.1192   44.1727 a3         1 CLA     -0.134000
     23 CMD        70.5959   55.2391   37.5032 a3         1 CLA     -0.141100
     24 C1         80.0861   52.5695   34.0004 a2         1 CLA      0.023000
     25 C1A        76.6674   56.3582   36.3977 ac         1 CLA     -0.015100
     26 C1B        78.1690   59.1357   39.3893 cr         1 CLA      0.054700
     27 C1C        74.4864   58.6626   41.8204 cn         1 CLA     -0.005600
     28 C1D        72.7726   56.3689   38.5633 ap         1 CLA     -0.047300
     29 O1A        78.6488   53.8771   32.0435 o2         1 CLA     -0.610800
     30 O1D        76.0218   52.7803   34.4572 o2         1 CLA     -0.558200
     31 C2         80.8407   52.3494   35.2610 c8         1 CLA     -0.325100
     32 C2A        77.9539   56.1447   35.5900 a1         1 CLA      0.098600
     33 C2B        78.8277   60.0340   40.2729 cb         1 CLA      0.088500
     34 C2C        73.4132   58.6446   42.8126 cb         1 CLA      0.053700
     35 C2D        72.0761   55.6846   37.5351 cb         1 CLA      0.058900
     36 O2A        79.8578   53.9783   33.9894 o1         1 CLA     -0.437200
     37 O2D        75.3038   52.8377   36.6195 o1         1 CLA     -0.357600
     38 C3         81.5202   51.3159   35.7093 c5         1 CLA      0.031200
     39 C3A        79.0469   57.0717   36.2914 a1         1 CLA      0.166800
     40 C3B        78.0079   60.0882   41.3910 cb         1 CLA      0.035000
     41 C3C        72.4135   57.9795   42.0880 cb         1 CLA     -0.089900
     42 C3D        73.0327   55.2913   36.6235 cb         1 CLA     -0.035900
     43 C4         81.1019   50.1905   36.6459 a3         1 CLA     -0.053300
     44 C4A        78.2329   57.6112   37.4148 ac         1 CLA      0.001800
     45 C4B        76.8249   59.2948   41.1021 cn         1 CLA     -0.020900
     46 C4C        72.9022   57.6466   40.7665 cr         1 CLA     -0.044400
     47 C4D        74.2322   55.9301   37.1018 c6         1 CLA     -0.046000
     48 C5         83.0246   51.2207   35.3236 a2         1 CLA     -0.070400
     49 C6         83.8732   52.4826   35.3203 a2         1 CLA      0.043900
     50 C7         84.1125   52.9140   36.8205 a2         1 CLA     -0.150000
     51 C8         84.9638   54.1840   37.1790 a1         1 CLA      0.064200
     52 C9         86.4373   54.0872   36.6398 a3         1 CLA     -0.259300
     53 C10        84.8053   54.4066   38.7318 a2         1 CLA     -0.071900
     54 C11        83.5692   55.1539   39.1910 a2         1 CLA      0.014500
     55 C12        83.7031   55.5627   40.6730 a2         1 CLA     -0.112100
     56 C13        82.4922   56.0704   41.4090 a1         1 CLA      0.089200
     57 C14        81.9497   57.3282   40.7019 a3         1 CLA     -0.239100
     58 C15        82.7384   56.2308   42.9410 a2         1 CLA     -0.102200
     59 C16        83.8369   57.2576   43.3653 a2         1 CLA      0.023900
     60 C17        83.7449   57.6039   44.8485 a2         1 CLA     -0.105700
     61 C18        83.2198   59.0593   45.0994 a1         1 CLA      0.206800
     62 C19        81.7362   59.3521   44.7703 a3         1 CLA     -0.280100
     63 C20        83.4004   59.4553   46.5274 a3         1 CLA     -0.280100
     64 NC         74.1267   58.0560   40.6155 nx         1 CLA     -0.309200
     65 MG         75.4154   57.8010   38.8556 mg         1 CLA      0.895000
     66 HMD3       69.9801   55.9482   36.9750 dc         1 CLA      0.064300
     67 HMD2       70.5562   54.2435   37.0459 dc         1 CLA      0.064300
     68 HMD1       70.2443   55.1839   38.5037 dc         1 CLA      0.064300
     69 HMC3       73.0696   60.1216   44.2812 dc         1 CLA      0.052100
     70 HMC2       72.8115   58.5395   44.7522 dc         1 CLA      0.052100
     71 HMC1       74.4024   59.0383   44.7773 dc         1 CLA      0.052100
     72 HMB3       79.9255   60.9621   38.7581 dc         1 CLA      0.063600
     73 HMB2       80.2189   61.6604   40.4145 dc         1 CLA      0.063600
     74 HMB1       80.8559   60.0460   40.1038 dc         1 CLA      0.063600
     75 HMA3       80.7759   56.0484   35.7985 dc         1 CLA      0.058300
     76 HMA2       81.0522   56.8592   37.2602 dc         1 CLA      0.058300
     77 HMA1       79.9984   55.5333   37.3906 dc         1 CLA      0.058300
     78 HED3       74.7876   50.9329   36.0917 dc         1 CLA      0.079300
     79 HED2       76.4120   51.0011   36.6295 dc         1 CLA      0.079300
     80 HED1       75.0553   51.0783   37.7518 dc         1 CLA      0.079300
     81 HBC3       71.5598   55.8248   44.0228 dc         1 CLA      0.016300
     82 HBC2       70.0685   55.6189   42.9671 dc         1 CLA      0.016300
     83 HBC1       71.6109   55.4194   42.2227 dc         1 CLA      0.016300
     84 HBB2       79.6801   61.4515   44.1788 da         1 CLA      0.183000
     85 HBB1       80.4636   61.0279   42.5166 da         1 CLA      0.183000
     86 HBA2       78.8980   56.6229   32.2281 dc         1 CLA      0.029400
     87 HBA1       79.9968   56.4020   33.5308 dc         1 CLA      0.029400
     88 HAC2       70.7264   58.0614   43.4183 dc         1 CLA      0.029300
     89 HAC1       70.2692   57.7054   41.7727 dc         1 CLA      0.029300
     90 HAA2       77.0143   56.0814   33.6052 dc         1 CLA      0.028700
     91 HAA1       77.8292   57.5711   33.9496 dc         1 CLA      0.028700
     92 H203       82.7213   58.7482   46.9776 dc         1 CLA      0.065600
     93 H202       84.4100   59.2488   46.9037 dc         1 CLA      0.065600
     94 H201       83.0139   60.3907   46.7609 dc         1 CLA      0.065600
     95 H193       81.7684   60.4321   44.4822 dc         1 CLA      0.065600
     96 H192       81.4189   58.6857   43.9670 dc         1 CLA      0.065600
     97 H191       81.0266   59.1785   45.6155 dc         1 CLA      0.065600
     98 H172       83.1166   56.8404   45.3637 dc         1 CLA      0.027600
     99 H171       84.7227   57.6422   45.2876 dc         1 CLA      0.027600
    100 H162       84.7328   56.7804   43.0148 dc         1 CLA      0.002900
    101 H161       83.6045   58.1322   42.6699 dc         1 CLA      0.002900
    102 H152       81.7788   56.4461   43.4011 dc         1 CLA      0.029100
    103 H151       83.0363   55.2739   43.4261 dc         1 CLA      0.029100
    104 H143       81.4024   56.9037   39.8504 dc         1 CLA      0.063600
    105 H142       81.2212   57.7819   41.3964 dc         1 CLA      0.063600
    106 H141       82.8502   57.8661   40.2872 dc         1 CLA      0.063600
    107 H122       84.1794   54.7057   41.1997 dc         1 CLA      0.032500
    108 H121       84.4368   56.3323   40.6561 dc         1 CLA      0.032500
    109 H112       83.3415   56.0393   38.5643 dc         1 CLA      0.006600
    110 H111       82.7017   54.5546   38.9992 dc         1 CLA      0.006600
    111 H102       84.9719   53.4722   39.3655 dc         1 CLA      0.024100
    112 H101       85.5974   55.0776   38.8928 dc         1 CLA      0.024100
    113 HHD        71.2194   56.5273   40.0996 da         1 CLA      0.174300
    114 HHC        75.8091   59.9038   42.8255 da         1 CLA      0.136800
    115 HHB        79.8207   58.8684   38.0128 da         1 CLA      0.138300
    116 HBD        75.1941   55.0980   34.2621 dc         1 CLA      0.107700
    117 HAB        77.5115   61.0259   43.2393 da         1 CLA      0.155200
    118 H93        86.9818   53.2204   36.8402 dc         1 CLA      0.069500
    119 H92        86.3631   54.0427   35.5917 dc         1 CLA      0.069500
    120 H91        87.0871   54.9838   36.8422 dc         1 CLA      0.069500
    121 H8         84.5584   55.0232   36.6561 dc         1 CLA      0.029300
    122 H72        83.0856   52.9929   37.2402 dc         1 CLA      0.044400
    123 H71        84.6192   52.1258   37.3277 dc         1 CLA      0.044400
    124 H62        84.8770   52.3514   34.9207 dc         1 CLA      0.015600
    125 H61        83.3478   53.2663   34.7629 dc         1 CLA      0.015600
    126 H52        83.5345   50.5785   35.9763 dc         1 CLA      0.033200
    127 H51        83.1305   50.7655   34.3639 dc         1 CLA      0.033200
    128 H43        81.6802   50.2579   37.4949 dc         1 CLA      0.037000
    129 H42        80.0130   50.2300   36.7765 dc         1 CLA      0.037000
    130 H41        81.2912   49.1049   36.2538 dc         1 CLA      0.037000
    131 H3A        79.3329   57.9405   35.6639 dc         1 CLA      0.041100
    132 H2A        78.2408   55.0571   35.6430 dc         1 CLA      0.083100
    133 H2         80.7629   53.2964   35.8951 da         1 CLA      0.180900
    134 H18        83.8741   59.7526   44.5899 dc         1 CLA     -0.003900
    135 H13        81.6943   55.3173   41.3749 dc         1 CLA      0.019700
    136 H12        79.1208   52.0537   34.1273 dc         1 CLA      0.120400
    137 H11        80.7441   52.1751   33.1842 dc         1 CLA      0.120400
    138 C1         67.5967   60.3889   48.9328 Z1         2 LUT      0.509236
    139 C2         66.3908   60.1230   49.9547 Z2         2 LUT     -0.434695
    140 C3         65.6763   61.3561   50.5154 Z3         2 LUT      0.437453
    141 O3         66.3336   61.7357   51.7287 S1         2 LUT     -0.547129
    142 C4         65.6933   62.5190   49.4746 Z4         2 LUT     -0.468603
    143 C5         66.2107   62.2760   48.0791 Z5         2 LUT      0.279246
    144 C6         67.1368   61.3372   47.8703 Z6         2 LUT     -0.305473
    145 C7         67.4973   60.8875   46.4682 Z7         2 LUT      0.069402
    146 C8         68.7154   61.0361   45.9563 Z8         2 LUT     -0.191631
    147 C9         69.1306   60.8945   44.5786 Z9         2 LUT      0.196698
    148 C10        70.2785   61.5775   44.1197 Y1         2 LUT     -0.208611
    149 C11        70.9999   61.5881   42.8047 Y2         2 LUT      0.030784
    150 C12        72.1472   62.3419   42.5626 Y3         2 LUT     -0.220316
    151 C13        73.0371   61.9879   41.4068 Y4         2 LUT      0.215937
    152 C14        74.2998   62.5802   41.4915 Y5         2 LUT     -0.185793
    153 C15        75.4114   62.6654   40.6014 Y6         2 LUT     -0.057835
    154 C16        68.1764   58.9770   48.6107 Y7         2 LUT     -0.405615
    155 C17        68.6719   61.0280   49.8957 Y7         2 LUT     -0.405615
    156 C18        65.5611   63.1640   47.0915 Y9         2 LUT     -0.369639
    157 C19        68.4483   59.7806   43.8050 W1         2 LUT     -0.333362
    158 C20        72.5411   61.5446   40.0025 W2         2 LUT     -0.323439
    159 C21        87.1670   64.0158   35.1997 Z1         2 LUT      0.406104
    160 C22        87.7216   63.3413   33.9116 Z2         2 LUT     -0.404965
    161 C23        87.9505   64.2421   32.7497 Z3         2 LUT      0.391255
    162 O23        88.4838   63.4672   31.6551 S1         2 LUT     -0.528210
    163 C24        86.6771   65.1774   32.5609 W6         2 LUT     -0.258361
    164 C25        85.7043   65.2337   33.4035 Z5         2 LUT      0.133546
    165 C26        85.7273   64.4972   34.7695 W8         2 LUT     -0.147008
    166 C27        85.0132   65.1456   35.9296 Z7         2 LUT      0.023843
    167 C28        83.7554   64.8744   36.4021 Z8         2 LUT     -0.216987
    168 C29        82.9795   65.3124   37.5984 Z9         2 LUT      0.206524
    169 C30        81.8348   64.5963   37.8191 Y1         2 LUT     -0.215556
    170 C31        81.0060   64.7340   38.9916 Y2         2 LUT      0.025142
    171 C32        79.8354   64.0676   39.1560 Y3         2 LUT     -0.212209
    172 C33        78.9816   64.0855   40.2892 Y4         2 LUT      0.240937
    173 C34        77.7911   63.3915   40.1390 Y5         2 LUT     -0.218862
    174 C35        76.6073   63.2982   40.9539 Y6         2 LUT     -0.023547
    175 C36        88.1965   65.0203   35.8587 Y7         2 LUT     -0.393485
    176 C37        87.1572   62.8168   36.1461 Y7         2 LUT     -0.393485
    177 C38        84.4563   66.0060   33.0388 Y9         2 LUT     -0.387526
    178 C39        83.4723   66.4127   38.4574 W1         2 LUT     -0.322618
    179 C40        79.2694   64.8906   41.4728 W2         2 LUT     -0.358472
    180 H403       80.2814   64.6891   41.7855 R7         2 LUT      0.097720
    181 H402       79.2528   65.9394   41.2939 R7         2 LUT      0.097720
    182 H401       78.6708   64.6285   42.3375 R7         2 LUT      0.097720
    183 H393       84.5544   66.5406   38.3741 R4         2 LUT      0.082505
    184 H392       83.0479   67.3990   38.2218 R4         2 LUT      0.082505
    185 H391       83.1605   66.3508   39.4738 R4         2 LUT      0.082505
    186 H383       83.6311   65.4240   32.6386 R1         2 LUT      0.104030
    187 H382       84.1769   66.7210   33.8974 R1         2 LUT      0.104030
    188 H381       84.7330   66.6645   32.1758 R1         2 LUT      0.104030
    189 H373       86.5597   61.9156   35.9121 T4         2 LUT      0.089537
    190 H372       88.1520   62.4659   36.3858 T4         2 LUT      0.089537
    191 H371       86.8138   63.1490   37.0774 T4         2 LUT      0.089537
    192 H363       89.1459   64.4921   35.9263 T4         2 LUT      0.089537
    193 H362       88.2711   65.9441   35.2252 T4         2 LUT      0.089537
    194 H361       87.9286   65.4740   36.8928 T4         2 LUT      0.089537
    195 H222       88.6919   63.0260   34.1574 U2         2 LUT      0.127376
    196 H221       87.1788   62.4512   33.5547 U2         2 LUT      0.127376
    197 H203       71.4948   61.4482   39.8310 R7         2 LUT      0.087068
    198 H202       72.8285   62.2578   39.2140 R7         2 LUT      0.087068
    199 H201       72.9970   60.6236   39.6919 R7         2 LUT      0.087068
    200 H193       67.4539   60.0653   43.5945 R4         2 LUT      0.089716
    201 H192       68.7623   59.7067   42.7607 R4         2 LUT      0.089716
    202 H191       68.5543   58.8742   44.3365 R4         2 LUT      0.089716
    203 H183       64.7157   63.7229   47.4374 R1         2 LUT      0.094572
    204 H182       66.3640   63.8652   46.7493 R1         2 LUT      0.094572
    205 H181       65.3003   62.6514   46.2596 R1         2 LUT      0.094572
    206 H173       68.9763   60.2714   50.6361 T4         2 LUT      0.093752
    207 H172       69.5856   61.3382   49.3684 T4         2 LUT      0.093752
    208 H171       68.3350   61.9408   50.4246 T4         2 LUT      0.093752
    209 H163       68.5204   58.3946   49.4269 T4         2 LUT      0.093752
    210 H162       67.3376   58.4378   48.1889 T4         2 LUT      0.093752
    211 H161       68.9142   59.0723   47.8436 T4         2 LUT      0.093752
    212 HO3        65.8419   61.6036   52.5654 Q1         2 LUT      0.300121
    213 H8         69.3647   61.4140   46.7244 U7         2 LUT      0.080784
    214 H7         66.6678   60.6945   45.8151 U6         2 LUT      0.042190
    215 H42        64.6659   62.6719   49.3203 U5         2 LUT      0.145166
    216 H41        66.1307   63.4118   49.9035 U5         2 LUT      0.145166
    217 H35        76.7170   63.7644   41.8799 T3         2 LUT      0.077919
    218 H34        77.5938   63.0177   39.1869 T2         2 LUT      0.073626
    219 H32        79.5614   63.5576   38.2269 T1         2 LUT      0.092510
    220 H31        81.2724   65.3967   39.7907 U9         2 LUT      0.070048
    221 H30        81.6092   63.7913   37.0393 U8         2 LUT      0.085442
    222 H3         64.7034   60.9593   50.7630 U3         2 LUT     -0.031596
    223 H28        83.2859   64.1433   35.6704 U7         2 LUT      0.084728
    224 H27        85.7719   65.7369   36.4327 U6         2 LUT      0.087291
    225 H26        85.1981   63.5336   34.6248 Q6         2 LUT      0.075325
    226 H24        86.7128   65.8521   31.6747 Q5         2 LUT      0.094482
    227 H23        88.7129   64.9757   33.0996 U3         2 LUT     -0.024869
    228 H22        65.6920   59.5146   49.3273 U2         2 LUT      0.127376
    229 H21        66.6758   59.6674   50.8827 U2         2 LUT      0.127376
    230 H15        75.3259   62.1112   39.6991 T3         2 LUT      0.093200
    231 H14        74.6138   63.0497   42.3884 T2         2 LUT      0.068865
    232 H12        72.5799   62.9340   43.3415 T1         2 LUT      0.095507
    233 H11        70.6427   60.8951   42.0835 U9         2 LUT      0.068930
    234 H10        70.6978   62.2849   44.8386 U8         2 LUT      0.083911
    235 H1         88.3516   63.9286   30.7895 Q1         2 LUT      0.297311
@<TRIPOS>BOND
    1     6     1 1
    2     7     2 1
    3     8     3 1
    4     9     4 1
    5    11     4 1
    6    12     6 1
    7    13     9 1
    8    16     9 1
    9    25     5 1
   10    25    16 1
   11    26    10 1
   12    26    17 1
   13    27    18 1
   14    28    14 1
   15    28    19 1
   16    29    12 1
   17    30    13 1
   18    31    24 1
   19    32     1 1
   20    32    25 1
   21    33    21 1
   22    33    26 1
   23    34    22 1
   24    34    27 1
   25    35    23 1
   26    35    28 1
   27    36    12 1
   28    36    24 1
   29    37    13 1
   30    37    15 1
   31    38    31 1
   32    39    20 1
   33    39    32 1
   34    40     2 1
   35    40    33 1
   36    41     3 1
   37    41    34 1
   38    42     4 1
   39    42    35 1
   40    43    38 1
   41    44     5 1
   42    44    17 1
   43    44    39 1
   44    45    10 1
   45    45    18 1
   46    45    40 1
   47    46    19 1
   48    46    41 1
   49    47    14 1
   50    47    16 1
   51    47    42 1
   52    48    38 1
   53    49    48 1
   54    50    49 1
   55    51    50 1
   56    52    51 1
   57    53    51 1
   58    54    53 1
   59    55    54 1
   60    56    55 1
   61    57    56 1
   62    58    56 1
   63    59    58 1
   64    60    59 1
   65    61    60 1
   66    62    61 1
   67    63    61 1
   68    64    27 1
   69    64    46 1
   70    65     5 1
   71    65    10 1
   72    65    64 1
   73    65    14 1
   74    66    23 1
   75    67    23 1
   76    68    23 1
   77    69    22 1
   78    70    22 1
   79    71    22 1
   80    72    21 1
   81    73    21 1
   82    74    21 1
   83    75    20 1
   84    76    20 1
   85    77    20 1
   86    78    15 1
   87    79    15 1
   88    80    15 1
   89    81     8 1
   90    82     8 1
   91    83     8 1
   92    84     7 1
   93    85     7 1
   94    86     6 1
   95    87     6 1
   96    88     3 1
   97    89     3 1
   98    90     1 1
   99    91     1 1
  100    92    63 1
  101    93    63 1
  102    94    63 1
  103    95    62 1
  104    96    62 1
  105    97    62 1
  106    98    60 1
  107    99    60 1
  108   100    59 1
  109   101    59 1
  110   102    58 1
  111   103    58 1
  112   104    57 1
  113   105    57 1
  114   106    57 1
  115   107    55 1
  116   108    55 1
  117   109    54 1
  118   110    54 1
  119   111    53 1
  120   112    53 1
  121   113    19 1
  122   114    18 1
  123   115    17 1
  124   116     9 1
  125   117     2 1
  126   118    52 1
  127   119    52 1
  128   120    52 1
  129   121    51 1
  130   122    50 1
  131   123    50 1
  132   124    49 1
  133   125    49 1
  134   126    48 1
  135   127    48 1
  136   128    43 1
  137   129    43 1
  138   130    43 1
  139   131    39 1
  140   132    32 1
  141   133    31 1
  142   134    61 1
  143   135    56 1
  144   136    24 1
  145   137    24 1
  146   139   138 1
  147   140   139 1
  148   141   140 1
  149   142   140 1
  150   143   142 1
  151   144   138 1
  152   144   143 1
  153   145   144 1
  154   146   145 1
  155   147   146 1
  156   148   147 1
  157   149   148 1
  158   150   149 1
  159   151   150 1
  160   152   151 1
  161   153   152 1
  162   154   138 1
  163   155   138 1
  164   156   143 1
  165   157   147 1
  166   158   151 1
  167   160   159 1
  168   161   160 1
  169   162   161 1
  170   163   161 1
  171   164   163 1
  172   165   159 1
  173   165   164 1
  174   166   165 1
  175   167   166 1
  176   168   167 1
  177   169   168 1
  178   170   169 1
  179   171   170 1
  180   172   171 1
  181   173   172 1
  182   174   153 1
  183   174   173 1
  184   175   159 1
  185   176   159 1
  186   177   164 1
  187   178   168 1
  188   179   172 1
  189   180   179 1
  190   181   179 1
  191   182   179 1
  192   183   178 1
  193   184   178 1
  194   185   178 1
  195   186   177 1
  196   187   177 1
  197   188   177 1
  198   189   176 1
  199   190   176 1
  200   191   176 1
  201   192   175 1
  202   193   175 1
  203   194   175 1
  204   195   160 1
  205   196   160 1
  206   197   158 1
  207   198   158 1
  208   199   158 1
  209   200   157 1
  210   201   157 1
  211   202   157 1
  212   203   156 1
  213   204   156 1
  214   205   156 1
  215   206   155 1
  216   207   155 1
  217   208   155 1
  218   209   154 1
  219   210   154 1
  220   211   154 1
  221   212   141 1
  222   213   146 1
  223   214   145 1
  224   215   142 1
  225   216   142 1
  226   217   174 1
  227   218   173 1
  228   219   171 1
  229   220   170 1
  230   221   169 1
  231   222   140 1
  232   223   167 1
  233   224   166 1
  234   225   165 1
  235   226   163 1
  236   227   161 1
  237   228   139 1
  238   229   139 1
  239   230   153 1
  240   231   152 1
  241   232   150 1
  242   233   149 1
  243   234   148 1
  244   235   162 1
  245   65    153 1
  246   65    174 1
@<TRIPOS>SUBSTRUCTURE
      1 CLA               1 ****               0 ****  **** 
      2 LUT             138 ****               0 ****  **** 
