@<TRIPOS>MOLECULE
Cpptraj generated mol2 file.
  235   246     2     0     0
SMALL
USER_CHARGES


@<TRIPOS>ATOM
      1 CAA        78.7125   57.9843   35.1557 a2         1 CLA     -0.055900
      2 CAB        78.2686   61.4413   44.1699 c8         1 CLA     -0.148500
      3 CAC        71.4944   56.7986   43.0560 a2         1 CLA     -0.012600
      4 CAD        74.8371   54.9687   36.0314 ck         1 CLA      0.398800
      5 NA         77.6300   58.2306   38.5074 ns         1 CLA     -0.225500
      6 CBA        80.0163   58.0330   34.3096 a2         1 CLA     -0.135000
      7 CBB        79.3090   61.4595   45.0212 c0         1 CLA     -0.395200
      8 CBC        71.6606   55.2895   43.1701 a3         1 CLA     -0.037700
      9 CBD        76.2212   55.6173   35.8594 a1         1 CLA     -0.053900
     10 NB         77.3478   59.5006   41.1340 nm         1 CLA     -0.295700
     11 OBD        74.3031   54.1879   35.2738 o2         1 CLA     -0.494600
     12 CGA        80.8269   56.7456   34.0699 c4         1 CLA      0.827000
     13 CGD        77.2606   54.5538   35.5951 c4         1 CLA      0.655300
     14 ND         74.8742   57.1077   38.8714 nm         1 CLA     -0.291600
     15 CED        78.0559   52.4182   36.3257 a3         1 CLA      0.005400
     16 CHA        76.4242   56.6528   36.9681 cs         1 CLA     -0.123800
     17 CHB        79.2650   59.5488   39.6247 aa         1 CLA     -0.291900
     18 CHC        75.9133   59.6483   43.1124 aa         1 CLA     -0.090400
     19 CHD        73.1050   56.6941   40.3727 aa         1 CLA     -0.052000
     20 CMA        81.0503   57.5789   38.1505 a3         1 CLA     -0.230700
     21 CMB        80.5685   61.2548   41.8080 a3         1 CLA     -0.180800
     22 CMC        73.5495   58.5927   45.1069 a3         1 CLA     -0.134000
     23 CMD        71.9106   54.8970   38.0298 a3         1 CLA     -0.141100
     24 C1         82.0063   54.8839   35.2375 a2         1 CLA      0.023000
     25 C1A        77.5075   57.4970   37.3596 ac         1 CLA     -0.015100
     26 C1B        78.6038   59.8730   40.7791 cr         1 CLA      0.054700
     27 C1C        74.8068   58.8174   42.7197 cn         1 CLA     -0.005600
     28 C1D        73.6556   56.5523   39.1472 ap         1 CLA     -0.047300
     29 O1A        81.2371   56.4126   32.9635 o2         1 CLA     -0.610800
     30 O1D        78.2568   54.7019   34.8824 o2         1 CLA     -0.558200
     31 C2         81.7136   54.0227   36.4979 c8         1 CLA     -0.325100
     32 C2A        78.8777   57.5449   36.6054 a1         1 CLA      0.098600
     33 C2B        79.1635   60.6695   41.8795 cb         1 CLA      0.088500
     34 C2C        73.6698   58.2528   43.6054 cb         1 CLA      0.053700
     35 C2D        73.2429   55.6145   38.1281 cb         1 CLA      0.058900
     36 O2A        80.9825   55.9408   35.2225 o1         1 CLA     -0.437200
     37 O2D        76.9861   53.4175   36.3901 o1         1 CLA     -0.357600
     38 C3         82.4834   53.0146   36.9899 c5         1 CLA      0.031200
     39 C3A        79.8036   58.3515   37.4931 a1         1 CLA      0.166800
     40 C3B        78.1934   60.7781   42.8727 cb         1 CLA      0.035000
     41 C3C        72.8196   57.5504   42.7114 cb         1 CLA     -0.089900
     42 C3D        74.3187   55.5655   37.2172 cb         1 CLA     -0.035900
     43 C4         82.1889   51.5296   36.5544 a3         1 CLA     -0.053300
     44 C4A        78.8388   58.8426   38.5944 ac         1 CLA      0.001800
     45 C4B        77.1074   59.9701   42.3767 cn         1 CLA     -0.020900
     46 C4C        73.5200   57.4642   41.4483 cr         1 CLA     -0.044400
     47 C4D        75.2187   56.5334   37.7118 c6         1 CLA     -0.046000
     48 C5         83.6006   53.2451   38.0495 a2         1 CLA     -0.070400
     49 C6         84.6888   54.3480   37.6208 a2         1 CLA      0.043900
     50 C7         85.3128   54.9665   38.9179 a2         1 CLA     -0.150000
     51 C8         85.6898   56.4495   39.0135 a1         1 CLA      0.064200
     52 C9         86.8319   56.8281   38.0444 a3         1 CLA     -0.259300
     53 C10        85.9708   56.9484   40.4875 a2         1 CLA     -0.071900
     54 C11        84.6618   57.0849   41.3619 a2         1 CLA      0.014500
     55 C12        84.7607   57.9217   42.6252 a2         1 CLA     -0.112100
     56 C13        85.5671   57.3675   43.7467 a1         1 CLA      0.089200
     57 C14        85.2156   55.9829   44.3248 a3         1 CLA     -0.239100
     58 C15        85.6846   58.4144   44.8767 a2         1 CLA     -0.102200
     59 C16        84.3187   58.8010   45.6054 a2         1 CLA      0.023900
     60 C17        84.5787   59.7229   46.8111 a2         1 CLA     -0.105700
     61 C18        83.3784   60.6873   47.1688 a1         1 CLA      0.206800
     62 C19        82.0645   59.8777   47.3569 a3         1 CLA     -0.280100
     63 C20        83.6653   61.7689   48.3074 a3         1 CLA     -0.280100
     64 NC         74.6854   58.2706   41.4648 nx         1 CLA     -0.309200
     65 MG         76.0673   58.4587   39.9298 mg         1 CLA      0.895000
     66 HMD3       71.2019   55.7025   37.8782 dc         1 CLA      0.064300
     67 HMD2       71.8773   54.2373   37.1486 dc         1 CLA      0.064300
     68 HMD1       71.8383   54.4791   39.0694 dc         1 CLA      0.064300
     69 HMC3       73.4497   59.7258   45.1903 dc         1 CLA      0.052100
     70 HMC2       72.6799   58.1167   45.5812 dc         1 CLA      0.052100
     71 HMC1       74.4059   58.1984   45.6276 dc         1 CLA      0.052100
     72 HMB3       81.4014   60.5296   42.1016 dc         1 CLA      0.063600
     73 HMB2       80.7676   61.6086   40.7998 dc         1 CLA      0.063600
     74 HMB1       80.6367   62.0950   42.5460 dc         1 CLA      0.063600
     75 HMA3       80.6657   56.5725   38.4093 dc         1 CLA      0.058300
     76 HMA2       81.9069   57.3948   37.4449 dc         1 CLA      0.058300
     77 HMA1       81.4885   58.0720   39.0141 dc         1 CLA      0.058300
     78 HED3       79.0307   52.8016   36.3230 dc         1 CLA      0.079300
     79 HED2       77.8923   51.7039   37.0868 dc         1 CLA      0.079300
     80 HED1       77.9441   51.8090   35.4114 dc         1 CLA      0.079300
     81 HBC3       72.5797   54.9048   43.7363 dc         1 CLA      0.016300
     82 HBC2       70.7787   54.8801   43.6507 dc         1 CLA      0.016300
     83 HBC1       71.6491   54.9240   42.1850 dc         1 CLA      0.016300
     84 HBB2       79.3382   62.0507   45.9396 da         1 CLA      0.183000
     85 HBB1       80.1899   60.8925   44.7707 da         1 CLA      0.183000
     86 HBA2       79.6872   58.3166   33.2966 dc         1 CLA      0.029400
     87 HBA1       80.6367   58.7827   34.7210 dc         1 CLA      0.029400
     88 HAC2       71.1695   57.2227   44.0269 dc         1 CLA      0.029300
     89 HAC1       70.7756   57.0842   42.3110 dc         1 CLA      0.029300
     90 HAA2       78.0670   57.3424   34.6019 dc         1 CLA      0.028700
     91 HAA1       78.1613   58.9714   35.1431 dc         1 CLA      0.028700
     92 H203       82.8512   62.4972   48.3088 dc         1 CLA      0.065600
     93 H202       83.6124   61.2643   49.2789 dc         1 CLA      0.065600
     94 H201       84.6792   62.1366   48.2102 dc         1 CLA      0.065600
     95 H193       82.0717   59.2344   48.2962 dc         1 CLA      0.065600
     96 H192       81.2950   60.6002   47.4832 dc         1 CLA      0.065600
     97 H191       81.9315   59.2121   46.4957 dc         1 CLA      0.065600
     98 H172       84.9455   59.2403   47.7242 dc         1 CLA      0.027600
     99 H171       85.3934   60.3329   46.5083 dc         1 CLA      0.027600
    100 H162       83.6144   59.2727   44.9765 dc         1 CLA      0.002900
    101 H161       83.8039   57.9936   46.1618 dc         1 CLA      0.002900
    102 H152       86.4540   58.1245   45.6147 dc         1 CLA      0.029100
    103 H151       86.0329   59.3637   44.4105 dc         1 CLA      0.029100
    104 H143       84.1767   55.7752   44.1932 dc         1 CLA      0.063600
    105 H142       85.8274   55.2141   43.9129 dc         1 CLA      0.063600
    106 H141       85.2949   55.9102   45.4630 dc         1 CLA      0.063600
    107 H122       85.0928   58.9281   42.2899 dc         1 CLA      0.032500
    108 H121       83.8121   58.2016   43.0621 dc         1 CLA      0.032500
    109 H112       84.0280   57.6707   40.7286 dc         1 CLA      0.006600
    110 H111       84.2957   56.1591   41.6908 dc         1 CLA      0.006600
    111 H102       86.6526   56.2614   40.9656 dc         1 CLA      0.024100
    112 H101       86.4899   57.9607   40.4894 dc         1 CLA      0.024100
    113 HHD        72.1011   56.3075   40.3803 da         1 CLA      0.174300
    114 HHC        76.0782   59.9132   44.1608 da         1 CLA      0.136800
    115 HHB        80.3106   59.7701   39.7201 da         1 CLA      0.138300
    116 HBD        76.2921   56.2146   34.9303 dc         1 CLA      0.107700
    117 HAB        77.4046   61.9478   44.6173 da         1 CLA      0.155200
    118 H93        86.8928   57.8901   38.0677 dc         1 CLA      0.069500
    119 H92        87.8724   56.4436   38.2707 dc         1 CLA      0.069500
    120 H91        86.5731   56.5377   36.9956 dc         1 CLA      0.069500
    121 H8         84.7879   57.0837   38.7325 dc         1 CLA      0.029300
    122 H72        84.6978   54.7838   39.7280 dc         1 CLA      0.044400
    123 H71        86.2187   54.3271   39.0647 dc         1 CLA      0.044400
    124 H62        85.3005   53.8204   36.9018 dc         1 CLA      0.015600
    125 H61        84.1766   55.1169   37.0268 dc         1 CLA      0.015600
    126 H52        83.1144   53.5255   38.9339 dc         1 CLA      0.033200
    127 H51        84.0495   52.2971   38.1879 dc         1 CLA      0.033200
    128 H43        82.9885   51.0054   35.9647 dc         1 CLA      0.037000
    129 H42        81.8656   50.9329   37.4045 dc         1 CLA      0.037000
    130 H41        81.4046   51.7672   35.8522 dc         1 CLA      0.037000
    131 H3A        80.0444   59.2589   36.9361 dc         1 CLA      0.041100
    132 H2A        79.1937   56.4867   36.6507 dc         1 CLA      0.083100
    133 H2         80.9332   54.4169   37.1376 da         1 CLA      0.180900
    134 H18        83.2717   61.4275   46.3556 dc         1 CLA     -0.003900
    135 H13        86.6282   57.2970   43.3590 dc         1 CLA      0.019700
    136 H12        81.7897   54.2757   34.3307 dc         1 CLA      0.120400
    137 H11        83.0274   55.2014   35.1200 dc         1 CLA      0.120400
    138 C1         68.4980   60.7630   50.7545 Z1         2 LUT      0.509236
    139 C2         67.0759   60.6960   51.3914 Z2         2 LUT     -0.434695
    140 C3         66.3214   62.0278   51.6679 Z3         2 LUT      0.437453
    141 O3         65.9754   62.3292   52.9877 S1         2 LUT     -0.547129
    142 C4         66.9244   63.1555   50.8439 Z4         2 LUT     -0.468603
    143 C5         67.4938   62.6865   49.5172 Z5         2 LUT      0.279246
    144 C6         68.4079   61.6463   49.4652 Z6         2 LUT     -0.305473
    145 C7         68.9936   61.1432   48.1940 Z7         2 LUT      0.069402
    146 C8         69.7100   61.8490   47.2998 Z8         2 LUT     -0.191631
    147 C9         70.2254   61.4050   46.0192 Z9         2 LUT      0.196698
    148 C10        71.1956   62.1546   45.3914 Y1         2 LUT     -0.208611
    149 C11        71.8723   61.9786   44.1179 Y2         2 LUT      0.030784
    150 C12        72.9610   62.7281   43.7411 Y3         2 LUT     -0.220316
    151 C13        73.8562   62.6604   42.5832 Y4         2 LUT      0.215937
    152 C14        75.0241   63.4237   42.6302 Y5         2 LUT     -0.185793
    153 C15        76.1858   63.3779   41.8027 Y6         2 LUT     -0.057835
    154 C16        68.9554   59.3557   50.4246 Y7         2 LUT     -0.405615
    155 C17        69.5161   61.2842   51.8303 Y7         2 LUT     -0.405615
    156 C18        66.7946   63.2131   48.2933 Y9         2 LUT     -0.369639
    157 C19        69.6469   60.1690   45.4425 W1         2 LUT     -0.333362
    158 C20        73.5288   61.7448   41.3919 W2         2 LUT     -0.323439
    159 C21        87.3060   64.6401   35.2600 Z1         2 LUT      0.406104
    160 C22        88.2072   64.2945   33.9847 Z2         2 LUT     -0.404965
    161 C23        88.3272   65.4322   33.0214 Z3         2 LUT      0.391255
    162 O23        89.1205   64.9517   31.9386 S1         2 LUT     -0.528210
    163 C24        86.9388   65.9983   32.7053 W6         2 LUT     -0.258361
    164 C25        85.8600   65.9926   33.5182 Z5         2 LUT      0.133546
    165 C26        85.8376   65.0555   34.7680 W8         2 LUT     -0.147008
    166 C27        84.9177   65.6261   35.8428 Z7         2 LUT      0.023843
    167 C28        83.8784   64.9483   36.4890 Z8         2 LUT     -0.216987
    168 C29        83.3613   65.4948   37.7974 Z9         2 LUT      0.206524
    169 C30        82.2194   64.8687   38.1633 Y1         2 LUT     -0.215556
    170 C31        81.4990   65.0297   39.3671 Y2         2 LUT      0.025142
    171 C32        80.3085   64.5488   39.7018 Y3         2 LUT     -0.212209
    172 C33        79.5356   64.8143   40.8943 Y4         2 LUT      0.240937
    173 C34        78.4044   64.0642   41.0668 Y5         2 LUT     -0.218862
    174 C35        77.3549   64.0363   41.9936 Y6         2 LUT     -0.023547
    175 C36        88.0853   65.8366   35.8814 Y7         2 LUT     -0.393485
    176 C37        87.2541   63.3677   36.1832 Y7         2 LUT     -0.393485
    177 C38        84.6526   66.7174   33.1994 Y9         2 LUT     -0.387526
    178 C39        84.2085   66.4940   38.5863 W1         2 LUT     -0.322618
    179 C40        79.9024   65.9891   41.7752 W2         2 LUT     -0.358472
    180 H403       79.0779   66.2052   42.4589 R7         2 LUT      0.097720
    181 H402       80.6955   65.6767   42.4450 R7         2 LUT      0.097720
    182 H401       80.0899   66.8766   41.2650 R7         2 LUT      0.097720
    183 H393       84.9004   66.0381   39.2252 R4         2 LUT      0.082505
    184 H392       84.6904   67.3587   38.0693 R4         2 LUT      0.082505
    185 H391       83.5494   66.8468   39.3248 R4         2 LUT      0.082505
    186 H383       83.9459   65.9737   32.7612 R1         2 LUT      0.104030
    187 H382       84.0775   67.1584   34.0967 R1         2 LUT      0.104030
    188 H381       84.8800   67.5800   32.5330 R1         2 LUT      0.104030
    189 H373       86.7448   63.5566   37.0869 T4         2 LUT      0.089537
    190 H372       86.8510   62.5207   35.6269 T4         2 LUT      0.089537
    191 H371       88.2576   63.1225   36.5061 T4         2 LUT      0.089537
    192 H363       89.0698   65.5073   36.2002 T4         2 LUT      0.089537
    193 H362       88.1954   66.7570   35.2838 T4         2 LUT      0.089537
    194 H361       87.4159   66.0156   36.7527 T4         2 LUT      0.089537
    195 H222       89.2302   64.0437   34.3954 U2         2 LUT      0.127376
    196 H221       87.7705   63.4206   33.4169 U2         2 LUT      0.127376
    197 H203       73.6354   62.2127   40.4359 R7         2 LUT      0.087068
    198 H202       74.0165   60.8080   41.2914 R7         2 LUT      0.087068
    199 H201       72.5241   61.5536   41.3747 R7         2 LUT      0.087068
    200 H193       69.5495   59.2396   46.0945 R4         2 LUT      0.089716
    201 H192       68.6306   60.3808   45.1534 R4         2 LUT      0.089716
    202 H191       70.1786   59.7709   44.5648 R4         2 LUT      0.089716
    203 H183       66.9610   64.2697   48.2321 R1         2 LUT      0.094572
    204 H182       67.2534   62.7654   47.3984 R1         2 LUT      0.094572
    205 H181       65.6990   62.9499   48.3284 R1         2 LUT      0.094572
    206 H173       69.5532   62.3168   52.1925 T4         2 LUT      0.093752
    207 H172       69.6273   60.6565   52.7415 T4         2 LUT      0.093752
    208 H171       70.5346   61.1035   51.3234 T4         2 LUT      0.093752
    209 H163       68.2077   58.8752   49.7004 T4         2 LUT      0.093752
    210 H162       69.9938   59.1912   50.0185 T4         2 LUT      0.093752
    211 H161       69.1072   58.6751   51.2645 T4         2 LUT      0.093752
    212 HO3        66.6389   62.0364   53.6365 Q1         2 LUT      0.300121
    213 H8         70.0176   62.8431   47.6863 U7         2 LUT      0.080784
    214 H7         68.7468   60.1484   47.9459 U6         2 LUT      0.042190
    215 H42        66.1041   63.8807   50.6564 U5         2 LUT      0.145166
    216 H41        67.7792   63.5396   51.3551 U5         2 LUT      0.145166
    217 H35        77.4435   64.4971   42.9765 T3         2 LUT      0.077919
    218 H34        78.1228   63.3548   40.2606 T2         2 LUT      0.073626
    219 H32        79.8446   63.7721   39.0690 T1         2 LUT      0.092510
    220 H31        81.9012   65.6574   40.1248 U9         2 LUT      0.070048
    221 H30        81.8601   64.1225   37.5312 U8         2 LUT      0.085442
    222 H3         65.3073   61.8256   51.2629 U3         2 LUT     -0.031596
    223 H28        83.6773   63.9006   36.3661 U7         2 LUT      0.084728
    224 H27        85.2168   66.6084   36.1826 U6         2 LUT      0.087291
    225 H26        85.3037   64.2095   34.4037 Q6         2 LUT      0.075325
    226 H24        86.9468   66.6386   31.8800 Q5         2 LUT      0.094482
    227 H23        89.0100   66.1005   33.6494 U3         2 LUT     -0.024869
    228 H22        66.4086   60.2612   50.6486 U2         2 LUT      0.127376
    229 H21        67.1272   60.0644   52.3179 U2         2 LUT      0.127376
    230 H15        76.0609   62.7794   40.8792 T3         2 LUT      0.093200
    231 H14        75.1247   64.0277   43.5471 T2         2 LUT      0.068865
    232 H12        73.2582   63.4314   44.5466 T1         2 LUT      0.095507
    233 H11        71.4493   61.1221   43.5681 U9         2 LUT      0.068930
    234 H10        71.6623   63.0164   45.9485 U8         2 LUT      0.083911
    235 H1         88.6601   64.5341   31.2644 Q1         2 LUT      0.297311
@<TRIPOS>BOND
    1     6     1 1
    2     7     2 1
    3     8     3 1
    4     9     4 1
    5    11     4 1
    6    12     6 1
    7    13     9 1
    8    16     9 1
    9    25     5 1
   10    25    16 1
   11    26    10 1
   12    26    17 1
   13    27    18 1
   14    28    14 1
   15    28    19 1
   16    29    12 1
   17    30    13 1
   18    31    24 1
   19    32     1 1
   20    32    25 1
   21    33    21 1
   22    33    26 1
   23    34    22 1
   24    34    27 1
   25    35    23 1
   26    35    28 1
   27    36    12 1
   28    36    24 1
   29    37    13 1
   30    37    15 1
   31    38    31 1
   32    39    20 1
   33    39    32 1
   34    40     2 1
   35    40    33 1
   36    41     3 1
   37    41    34 1
   38    42     4 1
   39    42    35 1
   40    43    38 1
   41    44     5 1
   42    44    17 1
   43    44    39 1
   44    45    10 1
   45    45    18 1
   46    45    40 1
   47    46    19 1
   48    46    41 1
   49    47    14 1
   50    47    16 1
   51    47    42 1
   52    48    38 1
   53    49    48 1
   54    50    49 1
   55    51    50 1
   56    52    51 1
   57    53    51 1
   58    54    53 1
   59    55    54 1
   60    56    55 1
   61    57    56 1
   62    58    56 1
   63    59    58 1
   64    60    59 1
   65    61    60 1
   66    62    61 1
   67    63    61 1
   68    64    27 1
   69    64    46 1
   70    65     5 1
   71    65    10 1
   72    65    64 1
   73    65    14 1
   74    66    23 1
   75    67    23 1
   76    68    23 1
   77    69    22 1
   78    70    22 1
   79    71    22 1
   80    72    21 1
   81    73    21 1
   82    74    21 1
   83    75    20 1
   84    76    20 1
   85    77    20 1
   86    78    15 1
   87    79    15 1
   88    80    15 1
   89    81     8 1
   90    82     8 1
   91    83     8 1
   92    84     7 1
   93    85     7 1
   94    86     6 1
   95    87     6 1
   96    88     3 1
   97    89     3 1
   98    90     1 1
   99    91     1 1
  100    92    63 1
  101    93    63 1
  102    94    63 1
  103    95    62 1
  104    96    62 1
  105    97    62 1
  106    98    60 1
  107    99    60 1
  108   100    59 1
  109   101    59 1
  110   102    58 1
  111   103    58 1
  112   104    57 1
  113   105    57 1
  114   106    57 1
  115   107    55 1
  116   108    55 1
  117   109    54 1
  118   110    54 1
  119   111    53 1
  120   112    53 1
  121   113    19 1
  122   114    18 1
  123   115    17 1
  124   116     9 1
  125   117     2 1
  126   118    52 1
  127   119    52 1
  128   120    52 1
  129   121    51 1
  130   122    50 1
  131   123    50 1
  132   124    49 1
  133   125    49 1
  134   126    48 1
  135   127    48 1
  136   128    43 1
  137   129    43 1
  138   130    43 1
  139   131    39 1
  140   132    32 1
  141   133    31 1
  142   134    61 1
  143   135    56 1
  144   136    24 1
  145   137    24 1
  146   139   138 1
  147   140   139 1
  148   141   140 1
  149   142   140 1
  150   143   142 1
  151   144   138 1
  152   144   143 1
  153   145   144 1
  154   146   145 1
  155   147   146 1
  156   148   147 1
  157   149   148 1
  158   150   149 1
  159   151   150 1
  160   152   151 1
  161   153   152 1
  162   154   138 1
  163   155   138 1
  164   156   143 1
  165   157   147 1
  166   158   151 1
  167   160   159 1
  168   161   160 1
  169   162   161 1
  170   163   161 1
  171   164   163 1
  172   165   159 1
  173   165   164 1
  174   166   165 1
  175   167   166 1
  176   168   167 1
  177   169   168 1
  178   170   169 1
  179   171   170 1
  180   172   171 1
  181   173   172 1
  182   174   153 1
  183   174   173 1
  184   175   159 1
  185   176   159 1
  186   177   164 1
  187   178   168 1
  188   179   172 1
  189   180   179 1
  190   181   179 1
  191   182   179 1
  192   183   178 1
  193   184   178 1
  194   185   178 1
  195   186   177 1
  196   187   177 1
  197   188   177 1
  198   189   176 1
  199   190   176 1
  200   191   176 1
  201   192   175 1
  202   193   175 1
  203   194   175 1
  204   195   160 1
  205   196   160 1
  206   197   158 1
  207   198   158 1
  208   199   158 1
  209   200   157 1
  210   201   157 1
  211   202   157 1
  212   203   156 1
  213   204   156 1
  214   205   156 1
  215   206   155 1
  216   207   155 1
  217   208   155 1
  218   209   154 1
  219   210   154 1
  220   211   154 1
  221   212   141 1
  222   213   146 1
  223   214   145 1
  224   215   142 1
  225   216   142 1
  226   217   174 1
  227   218   173 1
  228   219   171 1
  229   220   170 1
  230   221   169 1
  231   222   140 1
  232   223   167 1
  233   224   166 1
  234   225   165 1
  235   226   163 1
  236   227   161 1
  237   228   139 1
  238   229   139 1
  239   230   153 1
  240   231   152 1
  241   232   150 1
  242   233   149 1
  243   234   148 1
  244   235   162 1
  245   65    153 1
  246   65    174 1
@<TRIPOS>SUBSTRUCTURE
      1 CLA               1 ****               0 ****  **** 
      2 LUT             138 ****               0 ****  **** 
