@<TRIPOS>MOLECULE
Cpptraj generated mol2 file.
  235   246     2     0     0
SMALL
USER_CHARGES


@<TRIPOS>ATOM
      1 CAA        80.2214   58.2635   34.6437 a2         1 CLA     -0.055900
      2 CAB        80.6441   62.3078   43.3287 c8         1 CLA     -0.148500
      3 CAC        73.5660   58.4091   43.1384 a2         1 CLA     -0.012600
      4 CAD        75.9632   55.9119   35.9475 ck         1 CLA      0.398800
      5 NA         79.3762   58.5213   38.1336 ns         1 CLA     -0.225500
      6 CBA        81.4765   58.0486   33.7523 a2         1 CLA     -0.135000
      7 CBB        80.3820   61.8751   44.5542 c0         1 CLA     -0.395200
      8 CBC        73.7083   56.8723   43.4495 a3         1 CLA     -0.037700
      9 CBD        77.4044   56.4006   35.5511 a1         1 CLA     -0.053900
     10 NB         79.3632   60.2937   40.5363 nm         1 CLA     -0.295700
     11 OBD        75.3405   55.0643   35.3021 o2         1 CLA     -0.494600
     12 CGA        81.8837   56.6273   33.2307 c4         1 CLA      0.827000
     13 CGD        78.3036   55.1851   35.3441 c4         1 CLA      0.655300
     14 ND         76.6718   57.9492   38.7349 nm         1 CLA     -0.291600
     15 CED        79.3220   53.4687   36.6902 a3         1 CLA      0.005400
     16 CHA        77.8980   57.2509   36.7152 cs         1 CLA     -0.123800
     17 CHB        81.1381   59.9787   38.8903 aa         1 CLA     -0.291900
     18 CHC        78.0719   60.7204   42.5808 aa         1 CLA     -0.090400
     19 CHD        74.6542   58.2378   40.1904 aa         1 CLA     -0.052000
     20 CMA        82.5821   57.5174   37.4732 a3         1 CLA     -0.230700
     21 CMB        82.6449   61.9333   40.9409 a3         1 CLA     -0.180800
     22 CMC        75.7659   60.2272   44.6238 a3         1 CLA     -0.134000
     23 CMD        73.2186   56.3465   38.0538 a3         1 CLA     -0.141100
     24 C1         82.6003   54.5237   33.9867 a2         1 CLA      0.023000
     25 C1A        79.1447   57.7765   36.9812 ac         1 CLA     -0.015100
     26 C1B        80.5839   60.5810   40.0684 cr         1 CLA      0.054700
     27 C1C        76.8660   59.9994   42.3116 cn         1 CLA     -0.005600
     28 C1D        75.2785   57.7055   39.0289 ap         1 CLA     -0.047300
     29 O1A        81.5212   56.0454   32.1572 o2         1 CLA     -0.610800
     30 O1D        79.1287   55.0657   34.4130 o2         1 CLA     -0.558200
     31 C2         83.0780   53.8665   35.1868 c8         1 CLA     -0.325100
     32 C2A        80.3847   57.6849   36.0657 a1         1 CLA      0.098600
     33 C2B        81.2804   61.4130   41.0382 cb         1 CLA      0.088500
     34 C2C        75.7540   59.7891   43.2240 cb         1 CLA      0.053700
     35 C2D        74.6166   56.9010   38.1011 cb         1 CLA      0.058900
     36 O2A        82.4809   55.9229   34.2841 o1         1 CLA     -0.437200
     37 O2D        78.3219   54.4845   36.5577 o1         1 CLA     -0.357600
     38 C3         84.0265   53.0076   35.1844 c5         1 CLA      0.031200
     39 C3A        81.4588   58.4235   36.9421 a1         1 CLA      0.166800
     40 C3B        80.3895   61.5325   42.1219 cb         1 CLA      0.035000
     41 C3C        74.8325   58.9834   42.6057 cb         1 CLA     -0.089900
     42 C3D        75.5913   56.6846   37.1454 cb         1 CLA     -0.035900
     43 C4         83.8219   51.4527   35.0197 a3         1 CLA     -0.053300
     44 C4A        80.6155   59.0363   38.0348 ac         1 CLA      0.001800
     45 C4B        79.2123   60.8283   41.7541 cn         1 CLA     -0.020900
     46 C4C        75.3192   58.8598   41.2333 cr         1 CLA     -0.044400
     47 C4D        76.7985   57.3893   37.5298 c6         1 CLA     -0.046000
     48 C5         85.5063   53.4400   35.2288 a2         1 CLA     -0.070400
     49 C6         85.8716   54.5554   36.2666 a2         1 CLA      0.043900
     50 C7         87.3864   54.8095   36.3497 a2         1 CLA     -0.150000
     51 C8         87.8409   55.9787   37.2363 a1         1 CLA      0.064200
     52 C9         89.4454   55.9657   37.4732 a3         1 CLA     -0.259300
     53 C10        87.0728   56.2419   38.5904 a2         1 CLA     -0.071900
     54 C11        87.5956   57.2759   39.5968 a2         1 CLA      0.014500
     55 C12        86.7282   57.3434   40.8751 a2         1 CLA     -0.112100
     56 C13        87.3171   58.1329   42.0348 a1         1 CLA      0.089200
     57 C14        88.1945   57.1263   42.8675 a3         1 CLA     -0.239100
     58 C15        86.1294   58.6239   42.9889 a2         1 CLA     -0.102200
     59 C16        86.5676   59.5693   44.1556 a2         1 CLA      0.023900
     60 C17        85.3026   60.0482   44.9513 a2         1 CLA     -0.105700
     61 C18        84.4506   59.1205   45.8645 a1         1 CLA      0.206800
     62 C19        85.2376   58.2914   46.8950 a3         1 CLA     -0.280100
     63 C20        83.2867   59.9271   46.4860 a3         1 CLA     -0.280100
     64 NC         76.6093   59.3195   41.1929 nx         1 CLA     -0.309200
     65 MG         77.9644   59.0975   39.5551 mg         1 CLA      0.895000
     66 HMD3       73.1316   55.2970   37.7290 dc         1 CLA      0.064300
     67 HMD2       72.8332   56.2922   39.0669 dc         1 CLA      0.064300
     68 HMD1       72.4698   56.8948   37.4965 dc         1 CLA      0.064300
     69 HMC3       75.3929   61.1857   44.8884 dc         1 CLA      0.052100
     70 HMC2       75.1127   59.5608   45.2957 dc         1 CLA      0.052100
     71 HMC1       76.8625   60.1126   44.8998 dc         1 CLA      0.052100
     72 HMB3       83.2837   61.4868   40.1843 dc         1 CLA      0.063600
     73 HMB2       82.4955   62.9989   40.7226 dc         1 CLA      0.063600
     74 HMB1       83.0586   61.7886   41.9082 dc         1 CLA      0.063600
     75 HMA3       83.2340   58.0698   38.1177 dc         1 CLA      0.058300
     76 HMA2       82.1104   56.6496   37.9190 dc         1 CLA      0.058300
     77 HMA1       83.1436   57.2601   36.5766 dc         1 CLA      0.058300
     78 HED3       79.0346   52.8286   35.7964 dc         1 CLA      0.079300
     79 HED2       80.3511   53.9055   36.6722 dc         1 CLA      0.079300
     80 HED1       79.1075   52.9385   37.5603 dc         1 CLA      0.079300
     81 HBC3       72.7602   56.3818   43.6520 dc         1 CLA      0.016300
     82 HBC2       74.2171   56.4366   42.5356 dc         1 CLA      0.016300
     83 HBC1       74.3550   56.8932   44.3683 dc         1 CLA      0.016300
     84 HBB2       80.6196   62.6130   45.3359 da         1 CLA      0.183000
     85 HBB1       79.9308   60.8990   44.7968 da         1 CLA      0.183000
     86 HBA2       81.5081   58.6445   32.8795 dc         1 CLA      0.029400
     87 HBA1       82.3616   58.2859   34.3785 dc         1 CLA      0.029400
     88 HAC2       73.3175   58.9861   44.0277 dc         1 CLA      0.029300
     89 HAC1       72.8426   58.4240   42.3551 dc         1 CLA      0.029300
     90 HAA2       79.3202   57.8437   34.1104 dc         1 CLA      0.028700
     91 HAA1       80.0638   59.3070   34.8584 dc         1 CLA      0.028700
     92 H203       82.8783   60.6856   45.8293 dc         1 CLA      0.065600
     93 H202       82.5606   59.2663   46.9623 dc         1 CLA      0.065600
     94 H201       83.8076   60.4901   47.3455 dc         1 CLA      0.065600
     95 H193       86.0398   57.6910   46.5016 dc         1 CLA      0.065600
     96 H192       85.6713   59.0367   47.5354 dc         1 CLA      0.065600
     97 H191       84.6034   57.6181   47.4189 dc         1 CLA      0.065600
     98 H172       85.6257   60.7139   45.7681 dc         1 CLA      0.027600
     99 H171       84.6783   60.6810   44.2912 dc         1 CLA      0.027600
    100 H162       87.2945   59.1513   44.8187 dc         1 CLA      0.002900
    101 H161       87.0666   60.4329   43.7565 dc         1 CLA      0.002900
    102 H152       85.3499   59.0648   42.3356 dc         1 CLA      0.029100
    103 H151       85.6150   57.8500   43.5485 dc         1 CLA      0.029100
    104 H143       88.8401   56.5243   42.2812 dc         1 CLA      0.063600
    105 H142       88.8791   57.6317   43.5178 dc         1 CLA      0.063600
    106 H141       87.5130   56.4040   43.3690 dc         1 CLA      0.063600
    107 H122       85.7529   57.8214   40.5290 dc         1 CLA      0.032500
    108 H121       86.4286   56.3077   41.1075 dc         1 CLA      0.032500
    109 H112       88.5868   56.9244   39.8635 dc         1 CLA      0.006600
    110 H111       87.7122   58.2398   39.1535 dc         1 CLA      0.006600
    111 H102       86.0827   56.5270   38.4184 dc         1 CLA      0.024100
    112 H101       87.0025   55.3031   39.1167 dc         1 CLA      0.024100
    113 HHD        73.6481   57.8730   40.4848 da         1 CLA      0.174300
    114 HHC        78.0497   61.2818   43.5484 da         1 CLA      0.136800
    115 HHB        82.1183   60.3976   38.6172 da         1 CLA      0.138300
    116 HBD        77.2301   56.8619   34.6070 dc         1 CLA      0.107700
    117 HAB        81.1128   63.3102   43.1897 da         1 CLA      0.155200
    118 H93        90.0652   55.8238   36.5710 dc         1 CLA      0.069500
    119 H92        89.6931   56.8961   38.0072 dc         1 CLA      0.069500
    120 H91        89.8281   55.1612   38.0665 dc         1 CLA      0.069500
    121 H8         87.6947   56.8106   36.6420 dc         1 CLA      0.029300
    122 H72        87.8925   53.9268   36.8284 dc         1 CLA      0.044400
    123 H71        87.8737   54.9139   35.4793 dc         1 CLA      0.044400
    124 H62        85.3452   55.3341   35.7193 dc         1 CLA      0.015600
    125 H61        85.4658   54.3926   37.2235 dc         1 CLA      0.015600
    126 H52        86.1680   52.6334   35.5427 dc         1 CLA      0.033200
    127 H51        85.8936   53.7284   34.2490 dc         1 CLA      0.033200
    128 H43        84.7903   50.9020   34.9073 dc         1 CLA      0.037000
    129 H42        83.4874   50.9964   35.9734 dc         1 CLA      0.037000
    130 H41        83.0310   51.2335   34.2716 dc         1 CLA      0.037000
    131 H3A        81.9003   59.3794   36.4618 dc         1 CLA      0.041100
    132 H2A        80.5968   56.6320   35.8766 dc         1 CLA      0.083100
    133 H2         82.7415   54.3634   36.1035 da         1 CLA      0.180900
    134 H18        83.9470   58.3569   45.2110 dc         1 CLA     -0.003900
    135 H13        87.8444   59.0279   41.6599 dc         1 CLA      0.019700
    136 H12        81.5422   54.2123   33.7797 dc         1 CLA      0.120400
    137 H11        83.3555   54.5230   33.1808 dc         1 CLA      0.120400
    138 C1         70.4327   61.4272   50.1193 Z1         2 LUT      0.509236
    139 C2         70.0908   62.4216   51.3082 Z2         2 LUT     -0.434695
    140 C3         68.6067   62.8275   51.2794 Z3         2 LUT      0.437453
    141 O3         68.3731   63.7655   52.3567 S1         2 LUT     -0.547129
    142 C4         68.3167   63.4995   49.9123 Z4         2 LUT     -0.468603
    143 C5         68.9713   62.8977   48.6920 Z5         2 LUT      0.279246
    144 C6         69.8576   61.8602   48.7748 Z6         2 LUT     -0.305473
    145 C7         70.5832   61.5558   47.4925 Z7         2 LUT      0.069402
    146 C8         71.5863   62.1818   46.9606 Z8         2 LUT     -0.191631
    147 C9         72.0387   62.0688   45.5747 Z9         2 LUT      0.196698
    148 C10        73.0700   62.8460   45.1036 Y1         2 LUT     -0.208611
    149 C11        73.6558   62.8756   43.8051 Y2         2 LUT      0.030784
    150 C12        74.8795   63.4278   43.5401 Y3         2 LUT     -0.220316
    151 C13        75.6058   63.4150   42.2508 Y4         2 LUT      0.215937
    152 C14        76.8344   64.0462   42.2605 Y5         2 LUT     -0.185793
    153 C15        77.8673   64.0815   41.2837 Y6         2 LUT     -0.057835
    154 C16        69.9079   59.9818   50.3609 Y7         2 LUT     -0.405615
    155 C17        71.9723   61.2647   50.0484 Y7         2 LUT     -0.405615
    156 C18        68.6194   63.8371   47.5161 Y9         2 LUT     -0.369639
    157 C19        71.3012   61.0432   44.7766 W1         2 LUT     -0.333362
    158 C20        75.1094   62.5437   41.0577 W2         2 LUT     -0.323439
    159 C21        89.1777   65.4742   35.1451 Z1         2 LUT      0.406104
    160 C22        89.6772   64.7079   33.8142 Z2         2 LUT     -0.404965
    161 C23        89.8024   65.5342   32.6409 Z3         2 LUT      0.391255
    162 O23        90.3918   64.7492   31.6132 S1         2 LUT     -0.528210
    163 C24        88.4343   66.2605   32.3465 W6         2 LUT     -0.258361
    164 C25        87.4461   66.3909   33.2540 Z5         2 LUT      0.133546
    165 C26        87.6472   65.7696   34.6886 W8         2 LUT     -0.147008
    166 C27        86.9908   66.4930   35.8066 Z7         2 LUT      0.023843
    167 C28        85.8736   66.1707   36.4145 Z8         2 LUT     -0.216987
    168 C29        85.2760   66.6551   37.6454 Z9         2 LUT      0.206524
    169 C30        84.1305   65.9606   37.9872 Y1         2 LUT     -0.215556
    170 C31        83.2875   66.1585   39.1993 Y2         2 LUT      0.025142
    171 C32        82.0716   65.5405   39.4136 Y3         2 LUT     -0.212209
    172 C33        81.1498   65.7388   40.6173 Y4         2 LUT      0.240937
    173 C34        80.0265   64.9830   40.5094 Y5         2 LUT     -0.218862
    174 C35        79.0611   64.7301   41.5381 Y6         2 LUT     -0.023547
    175 C36        90.0345   66.7401   35.3833 Y7         2 LUT     -0.393485
    176 C37        89.2586   64.5312   36.3114 Y7         2 LUT     -0.393485
    177 C38        86.1207   67.0209   32.9087 Y9         2 LUT     -0.387526
    178 C39        85.8163   67.8302   38.4537 W1         2 LUT     -0.322618
    179 C40        81.7654   66.3365   41.8656 W2         2 LUT     -0.358472
    180 H403       82.6889   65.8733   42.1491 R7         2 LUT      0.097720
    181 H402       81.8845   67.3539   41.5314 R7         2 LUT      0.097720
    182 H401       81.1253   66.2969   42.7358 R7         2 LUT      0.097720
    183 H393       85.6902   67.7331   39.5316 R4         2 LUT      0.082505
    184 H392       86.8218   68.0832   38.1676 R4         2 LUT      0.082505
    185 H391       85.3337   68.7403   38.1232 R4         2 LUT      0.082505
    186 H383       86.1568   67.5216   31.8915 R1         2 LUT      0.104030
    187 H382       85.3862   66.2436   32.7802 R1         2 LUT      0.104030
    188 H381       85.7277   67.7393   33.6419 R1         2 LUT      0.104030
    189 H373       90.2864   64.3063   36.5281 T4         2 LUT      0.089537
    190 H372       88.7822   64.9869   37.1672 T4         2 LUT      0.089537
    191 H371       88.7515   63.5529   36.2293 T4         2 LUT      0.089537
    192 H363       90.0320   66.9914   36.4661 T4         2 LUT      0.089537
    193 H362       91.1369   66.7447   35.1352 T4         2 LUT      0.089537
    194 H361       89.5931   67.5113   34.7701 T4         2 LUT      0.089537
    195 H222       90.6354   64.1965   34.0334 U2         2 LUT      0.127376
    196 H221       88.9348   63.9780   33.6054 U2         2 LUT      0.127376
    197 H203       74.7258   61.5987   41.2979 R7         2 LUT      0.087068
    198 H202       74.2702   63.0509   40.5807 R7         2 LUT      0.087068
    199 H201       75.8579   62.3701   40.3154 R7         2 LUT      0.087068
    200 H193       71.7621   60.6539   43.8270 R4         2 LUT      0.089716
    201 H192       71.3014   60.0745   45.3564 R4         2 LUT      0.089716
    202 H191       70.2460   61.2880   44.6464 R4         2 LUT      0.089716
    203 H183       68.8933   63.3705   46.6089 R1         2 LUT      0.094572
    204 H182       67.6207   64.1644   47.4858 R1         2 LUT      0.094572
    205 H181       69.2203   64.7860   47.5562 R1         2 LUT      0.094572
    206 H173       72.3808   60.5552   49.2638 T4         2 LUT      0.093752
    207 H172       72.4268   62.2525   49.8430 T4         2 LUT      0.093752
    208 H171       72.3546   60.9154   50.9270 T4         2 LUT      0.093752
    209 H163       69.9179   59.3826   49.5136 T4         2 LUT      0.093752
    210 H162       70.4351   59.3697   51.0438 T4         2 LUT      0.093752
    211 H161       68.8945   59.9812   50.7100 T4         2 LUT      0.093752
    212 HO3        68.0752   63.2957   53.1635 Q1         2 LUT      0.300121
    213 H8         72.1612   62.8563   47.5543 U7         2 LUT      0.080784
    214 H7         69.9744   60.9083   46.9410 U6         2 LUT      0.042190
    215 H42        67.2355   63.4875   49.7077 U5         2 LUT      0.145166
    216 H41        68.6408   64.5427   50.0432 U5         2 LUT      0.145166
    217 H35        79.1746   65.2031   42.5320 T3         2 LUT      0.077919
    218 H34        79.9209   64.3175   39.5848 T2         2 LUT      0.073626
    219 H32        81.6782   64.9385   38.5523 T1         2 LUT      0.092510
    220 H31        83.7453   66.7857   39.8526 U9         2 LUT      0.070048
    221 H30        83.7735   65.2936   37.2980 U8         2 LUT      0.085442
    222 H3         67.8445   62.0334   51.2268 U3         2 LUT     -0.031596
    223 H28        85.3449   65.3276   35.8852 U7         2 LUT      0.084728
    224 H27        87.6245   67.2294   36.2702 U6         2 LUT      0.087291
    225 H26        87.1195   64.8042   34.5003 Q6         2 LUT      0.075325
    226 H24        88.3156   66.5788   31.2565 Q5         2 LUT      0.094482
    227 H23        90.5206   66.3288   32.9025 U3         2 LUT     -0.024869
    228 H22        70.2122   62.0262   52.3236 U2         2 LUT      0.127376
    229 H21        70.6160   63.3486   51.2335 U2         2 LUT      0.127376
    230 H15        77.6103   63.7480   40.3290 T3         2 LUT      0.093200
    231 H14        77.1248   64.2646   43.2194 T2         2 LUT      0.068865
    232 H12        75.3310   63.8187   44.4202 T1         2 LUT      0.095507
    233 H11        73.1481   62.4979   43.0112 U9         2 LUT      0.068930
    234 H10        73.3739   63.4694   45.8812 U8         2 LUT      0.083911
    235 H1         89.6675   64.3165   31.1004 Q1         2 LUT      0.297311
@<TRIPOS>BOND
    1     6     1 1
    2     7     2 1
    3     8     3 1
    4     9     4 1
    5    11     4 1
    6    12     6 1
    7    13     9 1
    8    16     9 1
    9    25     5 1
   10    25    16 1
   11    26    10 1
   12    26    17 1
   13    27    18 1
   14    28    14 1
   15    28    19 1
   16    29    12 1
   17    30    13 1
   18    31    24 1
   19    32     1 1
   20    32    25 1
   21    33    21 1
   22    33    26 1
   23    34    22 1
   24    34    27 1
   25    35    23 1
   26    35    28 1
   27    36    12 1
   28    36    24 1
   29    37    13 1
   30    37    15 1
   31    38    31 1
   32    39    20 1
   33    39    32 1
   34    40     2 1
   35    40    33 1
   36    41     3 1
   37    41    34 1
   38    42     4 1
   39    42    35 1
   40    43    38 1
   41    44     5 1
   42    44    17 1
   43    44    39 1
   44    45    10 1
   45    45    18 1
   46    45    40 1
   47    46    19 1
   48    46    41 1
   49    47    14 1
   50    47    16 1
   51    47    42 1
   52    48    38 1
   53    49    48 1
   54    50    49 1
   55    51    50 1
   56    52    51 1
   57    53    51 1
   58    54    53 1
   59    55    54 1
   60    56    55 1
   61    57    56 1
   62    58    56 1
   63    59    58 1
   64    60    59 1
   65    61    60 1
   66    62    61 1
   67    63    61 1
   68    64    27 1
   69    64    46 1
   70    65     5 1
   71    65    10 1
   72    65    64 1
   73    65    14 1
   74    66    23 1
   75    67    23 1
   76    68    23 1
   77    69    22 1
   78    70    22 1
   79    71    22 1
   80    72    21 1
   81    73    21 1
   82    74    21 1
   83    75    20 1
   84    76    20 1
   85    77    20 1
   86    78    15 1
   87    79    15 1
   88    80    15 1
   89    81     8 1
   90    82     8 1
   91    83     8 1
   92    84     7 1
   93    85     7 1
   94    86     6 1
   95    87     6 1
   96    88     3 1
   97    89     3 1
   98    90     1 1
   99    91     1 1
  100    92    63 1
  101    93    63 1
  102    94    63 1
  103    95    62 1
  104    96    62 1
  105    97    62 1
  106    98    60 1
  107    99    60 1
  108   100    59 1
  109   101    59 1
  110   102    58 1
  111   103    58 1
  112   104    57 1
  113   105    57 1
  114   106    57 1
  115   107    55 1
  116   108    55 1
  117   109    54 1
  118   110    54 1
  119   111    53 1
  120   112    53 1
  121   113    19 1
  122   114    18 1
  123   115    17 1
  124   116     9 1
  125   117     2 1
  126   118    52 1
  127   119    52 1
  128   120    52 1
  129   121    51 1
  130   122    50 1
  131   123    50 1
  132   124    49 1
  133   125    49 1
  134   126    48 1
  135   127    48 1
  136   128    43 1
  137   129    43 1
  138   130    43 1
  139   131    39 1
  140   132    32 1
  141   133    31 1
  142   134    61 1
  143   135    56 1
  144   136    24 1
  145   137    24 1
  146   139   138 1
  147   140   139 1
  148   141   140 1
  149   142   140 1
  150   143   142 1
  151   144   138 1
  152   144   143 1
  153   145   144 1
  154   146   145 1
  155   147   146 1
  156   148   147 1
  157   149   148 1
  158   150   149 1
  159   151   150 1
  160   152   151 1
  161   153   152 1
  162   154   138 1
  163   155   138 1
  164   156   143 1
  165   157   147 1
  166   158   151 1
  167   160   159 1
  168   161   160 1
  169   162   161 1
  170   163   161 1
  171   164   163 1
  172   165   159 1
  173   165   164 1
  174   166   165 1
  175   167   166 1
  176   168   167 1
  177   169   168 1
  178   170   169 1
  179   171   170 1
  180   172   171 1
  181   173   172 1
  182   174   153 1
  183   174   173 1
  184   175   159 1
  185   176   159 1
  186   177   164 1
  187   178   168 1
  188   179   172 1
  189   180   179 1
  190   181   179 1
  191   182   179 1
  192   183   178 1
  193   184   178 1
  194   185   178 1
  195   186   177 1
  196   187   177 1
  197   188   177 1
  198   189   176 1
  199   190   176 1
  200   191   176 1
  201   192   175 1
  202   193   175 1
  203   194   175 1
  204   195   160 1
  205   196   160 1
  206   197   158 1
  207   198   158 1
  208   199   158 1
  209   200   157 1
  210   201   157 1
  211   202   157 1
  212   203   156 1
  213   204   156 1
  214   205   156 1
  215   206   155 1
  216   207   155 1
  217   208   155 1
  218   209   154 1
  219   210   154 1
  220   211   154 1
  221   212   141 1
  222   213   146 1
  223   214   145 1
  224   215   142 1
  225   216   142 1
  226   217   174 1
  227   218   173 1
  228   219   171 1
  229   220   170 1
  230   221   169 1
  231   222   140 1
  232   223   167 1
  233   224   166 1
  234   225   165 1
  235   226   163 1
  236   227   161 1
  237   228   139 1
  238   229   139 1
  239   230   153 1
  240   231   152 1
  241   232   150 1
  242   233   149 1
  243   234   148 1
  244   235   162 1
  245   65    153 1
  246   65    174 1
@<TRIPOS>SUBSTRUCTURE
      1 CLA               1 ****               0 ****  **** 
      2 LUT             138 ****               0 ****  **** 
