@<TRIPOS>MOLECULE
Cpptraj generated mol2 file.
  235   246     2     0     0
SMALL
USER_CHARGES


@<TRIPOS>ATOM
      1 CAA        78.0397   58.7479   35.0998 a2         1 CLA     -0.055900
      2 CAB        78.1243   63.0831   43.8619 c8         1 CLA     -0.148500
      3 CAC        71.5742   58.5021   43.9051 a2         1 CLA     -0.012600
      4 CAD        73.9724   56.2258   36.6261 ck         1 CLA      0.398800
      5 NA         77.2994   59.2155   38.5966 ns         1 CLA     -0.225500
      6 CBA        79.2446   59.0053   34.1804 a2         1 CLA     -0.135000
      7 CBB        77.9059   62.5490   45.0881 c0         1 CLA     -0.395200
      8 CBC        71.7905   57.0204   43.9533 a3         1 CLA     -0.037700
      9 CBD        75.4706   56.6775   36.3498 a1         1 CLA     -0.053900
     10 NB         77.1911   60.8304   41.1401 nm         1 CLA     -0.295700
     11 OBD        73.2634   55.4120   35.9542 o2         1 CLA     -0.494600
     12 CGA        80.0299   57.8169   33.6520 c4         1 CLA      0.827000
     13 CGD        76.4016   55.5061   36.1424 c4         1 CLA      0.655300
     14 ND         74.4245   58.5551   39.2174 nm         1 CLA     -0.291600
     15 CED        77.0064   53.2549   37.0681 a3         1 CLA      0.005400
     16 CHA        75.8470   57.6653   37.3773 cs         1 CLA     -0.123800
     17 CHB        79.0521   60.6638   39.5392 aa         1 CLA     -0.291900
     18 CHC        75.9018   60.9555   43.1972 aa         1 CLA     -0.090400
     19 CHD        72.5461   58.4593   40.8515 aa         1 CLA     -0.052000
     20 CMA        80.6039   58.4245   37.9694 a3         1 CLA     -0.230700
     21 CMB        80.3690   62.6869   41.5804 a3         1 CLA     -0.180800
     22 CMC        73.7549   60.5233   45.2954 a3         1 CLA     -0.134000
     23 CMD        71.1077   56.7534   38.6796 a3         1 CLA     -0.141100
     24 C1         81.4125   56.0398   34.3253 a2         1 CLA      0.023000
     25 C1A        77.0984   58.3333   37.5346 ac         1 CLA     -0.015100
     26 C1B        78.4089   61.1222   40.6744 cr         1 CLA      0.054700
     27 C1C        74.7084   60.2978   43.0145 cn         1 CLA     -0.005600
     28 C1D        73.1353   58.1851   39.5863 ap         1 CLA     -0.047300
     29 O1A        80.0022   57.4342   32.4789 o2         1 CLA     -0.610800
     30 O1D        77.2122   55.3578   35.2524 o2         1 CLA     -0.558200
     31 C2         82.1123   55.4986   35.5242 c8         1 CLA     -0.325100
     32 C2A        78.3363   58.2916   36.6027 a1         1 CLA      0.098600
     33 C2B        78.9931   62.1060   41.6345 cb         1 CLA      0.088500
     34 C2C        73.6759   60.0709   43.9667 cb         1 CLA      0.053700
     35 C2D        72.5134   57.2833   38.6095 cb         1 CLA      0.058900
     36 O2A        80.6084   57.1826   34.7278 o1         1 CLA     -0.437200
     37 O2D        76.1458   54.4786   37.0588 o1         1 CLA     -0.357600
     38 C3         83.3714   55.5138   35.8284 c5         1 CLA      0.031200
     39 C3A        79.3601   59.2412   37.4148 a1         1 CLA      0.166800
     40 C3B        78.0540   62.2595   42.6884 cb         1 CLA      0.035000
     41 C3C        72.7423   59.2435   43.3367 cb         1 CLA     -0.089900
     42 C3D        73.6065   57.0002   37.7598 cb         1 CLA     -0.035900
     43 C4         84.4173   54.3882   35.4187 a3         1 CLA     -0.053300
     44 C4A        78.4932   59.8136   38.5520 ac         1 CLA      0.001800
     45 C4B        76.9842   61.2850   42.3913 cn         1 CLA     -0.020900
     46 C4C        73.1854   59.1051   41.9395 cr         1 CLA     -0.044400
     47 C4D        74.7063   57.8060   38.1602 c6         1 CLA     -0.046000
     48 C5         83.9480   56.6822   36.6696 a2         1 CLA     -0.070400
     49 C6         85.0878   56.3063   37.6285 a2         1 CLA      0.043900
     50 C7         85.1335   57.1484   38.9681 a2         1 CLA     -0.150000
     51 C8         85.1595   58.6961   38.8065 a1         1 CLA      0.064200
     52 C9         86.4018   59.0835   38.0053 a3         1 CLA     -0.259300
     53 C10        85.0930   59.4378   40.2113 a2         1 CLA     -0.071900
     54 C11        83.8998   59.2632   41.1595 a2         1 CLA      0.014500
     55 C12        83.9612   60.1973   42.4034 a2         1 CLA     -0.112100
     56 C13        85.0955   60.3028   43.4319 a1         1 CLA      0.089200
     57 C14        85.3757   58.9805   44.1550 a3         1 CLA     -0.239100
     58 C15        84.9437   61.4959   44.4521 a2         1 CLA     -0.102200
     59 C16        83.8497   61.4734   45.5247 a2         1 CLA      0.023900
     60 C17        83.7599   62.7731   46.3920 a2         1 CLA     -0.105700
     61 C18        82.7789   62.7423   47.6528 a1         1 CLA      0.206800
     62 C19        82.5141   64.1480   48.1868 a3         1 CLA     -0.280100
     63 C20        81.4189   62.0947   47.3717 a3         1 CLA     -0.280100
     64 NC         74.4152   59.7791   41.8022 nx         1 CLA     -0.309200
     65 MG         75.8327   59.6237   40.1477 mg         1 CLA      0.895000
     66 HMD3       71.0244   56.1298   37.8125 dc         1 CLA      0.064300
     67 HMD2       71.0963   56.1256   39.5586 dc         1 CLA      0.064300
     68 HMD1       70.2959   57.4382   38.8407 dc         1 CLA      0.064300
     69 HMC3       74.7355   60.2559   45.7589 dc         1 CLA      0.052100
     70 HMC2       73.5785   61.6459   45.3932 dc         1 CLA      0.052100
     71 HMC1       72.9189   60.0298   45.8444 dc         1 CLA      0.052100
     72 HMB3       80.3985   63.5846   42.2206 dc         1 CLA      0.063600
     73 HMB2       81.1450   61.9282   41.7640 dc         1 CLA      0.063600
     74 HMB1       80.3848   62.9668   40.5111 dc         1 CLA      0.063600
     75 HMA3       80.2220   57.5704   38.5221 dc         1 CLA      0.058300
     76 HMA2       81.1225   58.0333   37.0880 dc         1 CLA      0.058300
     77 HMA1       81.2753   59.0741   38.5380 dc         1 CLA      0.058300
     78 HED3       78.0786   53.5004   37.0376 dc         1 CLA      0.079300
     79 HED2       76.7216   52.9303   38.0790 dc         1 CLA      0.079300
     80 HED1       76.6788   52.5466   36.2620 dc         1 CLA      0.079300
     81 HBC3       72.2033   56.5241   43.0893 dc         1 CLA      0.016300
     82 HBC2       72.4680   56.7741   44.7237 dc         1 CLA      0.016300
     83 HBC1       70.8631   56.6281   44.2080 dc         1 CLA      0.016300
     84 HBB2       77.9220   63.0683   46.0099 da         1 CLA      0.183000
     85 HBB1       77.6471   61.4596   45.2074 da         1 CLA      0.183000
     86 HBA2       79.0347   59.6133   33.2577 dc         1 CLA      0.029400
     87 HBA1       79.9333   59.5910   34.8070 dc         1 CLA      0.029400
     88 HAC2       71.4028   58.8188   44.9791 dc         1 CLA      0.029300
     89 HAC1       70.7948   58.6940   43.2016 dc         1 CLA      0.029300
     90 HAA2       77.4810   57.9287   34.6320 dc         1 CLA      0.028700
     91 HAA1       77.4176   59.6316   35.0780 dc         1 CLA      0.028700
     92 H203       80.8844   62.6636   46.6232 dc         1 CLA      0.065600
     93 H202       81.4656   61.0178   47.2110 dc         1 CLA      0.065600
     94 H201       80.8863   62.2255   48.3148 dc         1 CLA      0.065600
     95 H193       82.1730   64.0347   49.1791 dc         1 CLA      0.065600
     96 H192       83.4308   64.7625   48.1868 dc         1 CLA      0.065600
     97 H191       81.7799   64.6991   47.5925 dc         1 CLA      0.065600
     98 H172       84.7393   63.0249   46.7806 dc         1 CLA      0.027600
     99 H171       83.3684   63.5268   45.6666 dc         1 CLA      0.027600
    100 H162       82.9100   61.4669   44.9804 dc         1 CLA      0.002900
    101 H161       83.8544   60.5467   46.1175 dc         1 CLA      0.002900
    102 H152       85.9027   61.6876   45.0290 dc         1 CLA      0.029100
    103 H151       84.7659   62.3534   43.7542 dc         1 CLA      0.029100
    104 H143       85.7839   58.2782   43.4444 dc         1 CLA      0.063600
    105 H142       86.1823   59.1996   44.8972 dc         1 CLA      0.063600
    106 H141       84.4830   58.5632   44.6309 dc         1 CLA      0.063600
    107 H122       83.8954   61.2375   42.0395 dc         1 CLA      0.032500
    108 H121       83.0924   59.9398   43.0236 dc         1 CLA      0.032500
    109 H112       82.9995   59.4957   40.5832 dc         1 CLA      0.006600
    110 H111       83.8901   58.2039   41.4405 dc         1 CLA      0.006600
    111 H102       85.9663   59.1620   40.8729 dc         1 CLA      0.024100
    112 H101       85.1427   60.5181   40.0200 dc         1 CLA      0.024100
    113 HHD        71.6550   57.9388   41.0985 da         1 CLA      0.174300
    114 HHC        75.9161   61.4843   44.1201 da         1 CLA      0.136800
    115 HHB        80.1164   60.9897   39.3665 da         1 CLA      0.138300
    116 HBD        75.5665   57.2786   35.4399 dc         1 CLA      0.107700
    117 HAB        78.4847   64.0944   43.8681 da         1 CLA      0.155200
    118 H93        86.4549   58.7245   36.9770 dc         1 CLA      0.069500
    119 H92        86.4248   60.2450   37.8732 dc         1 CLA      0.069500
    120 H91        87.3019   58.7360   38.4540 dc         1 CLA      0.069500
    121 H8         84.2358   59.0276   38.2984 dc         1 CLA      0.029300
    122 H72        84.2224   56.8986   39.5071 dc         1 CLA      0.044400
    123 H71        86.0192   56.8854   39.5085 dc         1 CLA      0.044400
    124 H62        84.9622   55.3147   38.0513 dc         1 CLA      0.015600
    125 H61        86.0589   56.3739   37.2421 dc         1 CLA      0.015600
    126 H52        84.2746   57.3904   35.9323 dc         1 CLA      0.033200
    127 H51        83.1041   57.1137   37.2448 dc         1 CLA      0.033200
    128 H43        83.8546   53.5439   34.9791 dc         1 CLA      0.037000
    129 H42        85.0377   54.8189   34.6059 dc         1 CLA      0.037000
    130 H41        84.9749   53.9819   36.2759 dc         1 CLA      0.037000
    131 H3A        79.5965   60.1143   36.7981 dc         1 CLA      0.041100
    132 H2A        78.5790   57.2517   36.6556 dc         1 CLA      0.083100
    133 H2         81.4633   54.8441   36.0412 da         1 CLA      0.180900
    134 H18        83.2144   62.1549   48.4315 dc         1 CLA     -0.003900
    135 H13        86.0288   60.5694   42.9042 dc         1 CLA      0.019700
    136 H12        80.7542   55.2493   33.9562 dc         1 CLA      0.120400
    137 H11        82.1179   56.3934   33.5903 dc         1 CLA      0.120400
    138 C1         66.7379   62.1485   51.4114 Z1         2 LUT      0.509236
    139 C2         66.8071   63.4735   52.2680 Z2         2 LUT     -0.434695
    140 C3         65.4265   64.1766   52.2564 Z3         2 LUT      0.437453
    141 O3         65.6500   65.4592   52.8398 S1         2 LUT     -0.547129
    142 C4         64.9911   64.2798   50.7898 Z4         2 LUT     -0.468603
    143 C5         65.7278   63.4831   49.6904 Z5         2 LUT      0.279246
    144 C6         66.5819   62.5174   49.9285 Z6         2 LUT     -0.305473
    145 C7         67.6357   62.0403   48.9541 Z7         2 LUT      0.069402
    146 C8         68.3916   62.6719   48.0267 Z8         2 LUT     -0.191631
    147 C9         69.1595   62.1007   46.9608 Z9         2 LUT      0.196698
    148 C10        69.9077   62.9467   46.1195 Y1         2 LUT     -0.208611
    149 C11        70.6917   62.7039   44.9293 Y2         2 LUT      0.030784
    150 C12        71.4996   63.6481   44.3728 Y3         2 LUT     -0.220316
    151 C13        72.4462   63.4361   43.2879 Y4         2 LUT      0.215937
    152 C14        73.3598   64.4243   43.0459 Y5         2 LUT     -0.185793
    153 C15        74.4919   64.3469   42.1376 Y6         2 LUT     -0.057835
    154 C16        65.5656   61.2945   51.9137 Y7         2 LUT     -0.405615
    155 C17        68.0990   61.4199   51.6396 Y7         2 LUT     -0.405615
    156 C18        65.6473   64.1629   48.3195 Y9         2 LUT     -0.369639
    157 C19        69.0745   60.5957   46.7102 W1         2 LUT     -0.333362
    158 C20        72.0358   62.5513   42.1056 W2         2 LUT     -0.323439
    159 C21        86.3844   66.4674   36.3089 Z1         2 LUT      0.406104
    160 C22        87.2358   65.9311   35.1405 Z2         2 LUT     -0.404965
    161 C23        87.3044   66.8805   33.9447 Z3         2 LUT      0.391255
    162 O23        87.8125   66.1218   32.8313 S1         2 LUT     -0.528210
    163 C24        85.9663   67.5795   33.6357 W6         2 LUT     -0.258361
    164 C25        84.8616   67.3918   34.3599 Z5         2 LUT      0.133546
    165 C26        84.9191   66.6987   35.7514 W8         2 LUT     -0.147008
    166 C27        83.8896   67.1985   36.8244 Z7         2 LUT      0.023843
    167 C28        82.8411   66.5199   37.4078 Z8         2 LUT     -0.216987
    168 C29        82.0016   66.8447   38.5803 Z9         2 LUT      0.206524
    169 C30        80.9740   66.0904   38.9713 Y1         2 LUT     -0.215556
    170 C31        80.0730   66.3302   40.0037 Y2         2 LUT      0.025142
    171 C32        78.8370   65.7262   40.0606 Y3         2 LUT     -0.212209
    172 C33        77.9163   65.8668   41.1920 Y4         2 LUT      0.240937
    173 C34        76.7813   65.1482   41.3168 Y5         2 LUT     -0.218862
    174 C35        75.5738   65.1629   42.1112 Y6         2 LUT     -0.023547
    175 C36        87.0226   67.7583   36.9299 Y7         2 LUT     -0.393485
    176 C37        86.3373   65.4830   37.4877 Y7         2 LUT     -0.393485
    177 C38        83.5609   68.0286   33.9702 Y9         2 LUT     -0.387526
    178 C39        82.3114   68.2197   39.1989 W1         2 LUT     -0.322618
    179 C40        78.2529   66.8615   42.3344 W2         2 LUT     -0.358472
    180 H403       77.6663   66.6409   43.2246 R7         2 LUT      0.097720
    181 H402       79.2580   66.7717   42.6819 R7         2 LUT      0.097720
    182 H401       77.9443   67.7991   42.0801 R7         2 LUT      0.097720
    183 H393       82.0290   68.2338   40.2740 R4         2 LUT      0.082505
    184 H392       83.3035   68.5678   39.3506 R4         2 LUT      0.082505
    185 H391       81.8042   69.0634   38.6390 R4         2 LUT      0.082505
    186 H383       83.1227   67.5522   33.1445 R1         2 LUT      0.104030
    187 H382       82.8032   68.0058   34.7226 R1         2 LUT      0.104030
    188 H381       83.6852   69.0398   33.7704 R1         2 LUT      0.104030
    189 H373       87.3177   65.2647   37.9833 T4         2 LUT      0.089537
    190 H372       85.6731   65.7394   38.3648 T4         2 LUT      0.089537
    191 H371       85.9736   64.5481   37.0976 T4         2 LUT      0.089537
    192 H363       87.9613   67.5590   37.5072 T4         2 LUT      0.089537
    193 H362       87.2808   68.5303   36.1650 T4         2 LUT      0.089537
    194 H361       86.3132   68.1153   37.7194 T4         2 LUT      0.089537
    195 H222       88.2515   65.7030   35.5107 U2         2 LUT      0.127376
    196 H221       86.8633   64.9333   34.9836 U2         2 LUT      0.127376
    197 H203       72.8192   62.2735   41.4634 R7         2 LUT      0.087068
    198 H202       71.6413   61.5941   42.2813 R7         2 LUT      0.087068
    199 H201       71.3116   63.0496   41.3906 R7         2 LUT      0.087068
    200 H193       69.1070   59.8803   47.5346 R4         2 LUT      0.089716
    201 H192       68.1264   60.4259   46.2081 R4         2 LUT      0.089716
    202 H191       69.8121   60.1889   46.0008 R4         2 LUT      0.089716
    203 H183       65.8901   63.3294   47.6684 R1         2 LUT      0.094572
    204 H182       64.6318   64.5043   48.0615 R1         2 LUT      0.094572
    205 H181       66.3802   64.9835   48.2289 R1         2 LUT      0.094572
    206 H173       68.2705   61.3666   52.7452 T4         2 LUT      0.093752
    207 H172       67.9447   60.3604   51.1978 T4         2 LUT      0.093752
    208 H171       69.0118   61.7960   51.1699 T4         2 LUT      0.093752
    209 H163       65.4938   60.2961   51.5315 T4         2 LUT      0.093752
    210 H162       65.4804   61.1985   53.0032 T4         2 LUT      0.093752
    211 H161       64.5611   61.7579   51.6453 T4         2 LUT      0.093752
    212 HO3        64.7697   65.8801   53.0367 Q1         2 LUT      0.300121
    213 H8         68.3069   63.7183   48.1366 U7         2 LUT      0.080784
    214 H7         67.6927   60.9662   48.9665 U6         2 LUT      0.042190
    215 H42        64.0492   63.7687   50.7428 U5         2 LUT      0.145166
    216 H41        64.7687   65.3715   50.5205 U5         2 LUT      0.145166
    217 H35        75.4761   65.8766   42.9763 T3         2 LUT      0.077919
    218 H34        76.5331   64.3578   40.5845 T2         2 LUT      0.073626
    219 H32        78.7079   64.9610   39.3603 T1         2 LUT      0.092510
    220 H31        80.3385   66.9913   40.8171 U9         2 LUT      0.070048
    221 H30        80.8929   65.1651   38.4319 U8         2 LUT      0.085442
    222 H3         64.6363   63.6106   52.8155 U3         2 LUT     -0.031596
    223 H28        82.7364   65.5501   36.8989 U7         2 LUT      0.084728
    224 H27        84.1099   68.1900   37.2226 U6         2 LUT      0.087291
    225 H26        84.6498   65.7740   35.4382 Q6         2 LUT      0.075325
    226 H24        85.8795   68.2012   32.7429 Q5         2 LUT      0.094482
    227 H23        88.0069   67.6013   34.2901 U3         2 LUT     -0.024869
    228 H22        66.9836   63.3080   53.3586 U2         2 LUT      0.127376
    229 H21        67.6400   64.0977   51.8942 U2         2 LUT      0.127376
    230 H15        74.6012   63.5199   41.5451 T3         2 LUT      0.093200
    231 H14        73.4169   65.3586   43.6633 T2         2 LUT      0.068865
    232 H12        71.5132   64.5785   44.9662 T1         2 LUT      0.095507
    233 H11        70.8059   61.6913   44.5304 U9         2 LUT      0.068930
    234 H10        69.9786   63.9900   46.4492 U8         2 LUT      0.083911
    235 H1         87.0715   65.7629   32.2968 Q1         2 LUT      0.297311
@<TRIPOS>BOND
    1     6     1 1
    2     7     2 1
    3     8     3 1
    4     9     4 1
    5    11     4 1
    6    12     6 1
    7    13     9 1
    8    16     9 1
    9    25     5 1
   10    25    16 1
   11    26    10 1
   12    26    17 1
   13    27    18 1
   14    28    14 1
   15    28    19 1
   16    29    12 1
   17    30    13 1
   18    31    24 1
   19    32     1 1
   20    32    25 1
   21    33    21 1
   22    33    26 1
   23    34    22 1
   24    34    27 1
   25    35    23 1
   26    35    28 1
   27    36    12 1
   28    36    24 1
   29    37    13 1
   30    37    15 1
   31    38    31 1
   32    39    20 1
   33    39    32 1
   34    40     2 1
   35    40    33 1
   36    41     3 1
   37    41    34 1
   38    42     4 1
   39    42    35 1
   40    43    38 1
   41    44     5 1
   42    44    17 1
   43    44    39 1
   44    45    10 1
   45    45    18 1
   46    45    40 1
   47    46    19 1
   48    46    41 1
   49    47    14 1
   50    47    16 1
   51    47    42 1
   52    48    38 1
   53    49    48 1
   54    50    49 1
   55    51    50 1
   56    52    51 1
   57    53    51 1
   58    54    53 1
   59    55    54 1
   60    56    55 1
   61    57    56 1
   62    58    56 1
   63    59    58 1
   64    60    59 1
   65    61    60 1
   66    62    61 1
   67    63    61 1
   68    64    27 1
   69    64    46 1
   70    65     5 1
   71    65    10 1
   72    65    64 1
   73    65    14 1
   74    66    23 1
   75    67    23 1
   76    68    23 1
   77    69    22 1
   78    70    22 1
   79    71    22 1
   80    72    21 1
   81    73    21 1
   82    74    21 1
   83    75    20 1
   84    76    20 1
   85    77    20 1
   86    78    15 1
   87    79    15 1
   88    80    15 1
   89    81     8 1
   90    82     8 1
   91    83     8 1
   92    84     7 1
   93    85     7 1
   94    86     6 1
   95    87     6 1
   96    88     3 1
   97    89     3 1
   98    90     1 1
   99    91     1 1
  100    92    63 1
  101    93    63 1
  102    94    63 1
  103    95    62 1
  104    96    62 1
  105    97    62 1
  106    98    60 1
  107    99    60 1
  108   100    59 1
  109   101    59 1
  110   102    58 1
  111   103    58 1
  112   104    57 1
  113   105    57 1
  114   106    57 1
  115   107    55 1
  116   108    55 1
  117   109    54 1
  118   110    54 1
  119   111    53 1
  120   112    53 1
  121   113    19 1
  122   114    18 1
  123   115    17 1
  124   116     9 1
  125   117     2 1
  126   118    52 1
  127   119    52 1
  128   120    52 1
  129   121    51 1
  130   122    50 1
  131   123    50 1
  132   124    49 1
  133   125    49 1
  134   126    48 1
  135   127    48 1
  136   128    43 1
  137   129    43 1
  138   130    43 1
  139   131    39 1
  140   132    32 1
  141   133    31 1
  142   134    61 1
  143   135    56 1
  144   136    24 1
  145   137    24 1
  146   139   138 1
  147   140   139 1
  148   141   140 1
  149   142   140 1
  150   143   142 1
  151   144   138 1
  152   144   143 1
  153   145   144 1
  154   146   145 1
  155   147   146 1
  156   148   147 1
  157   149   148 1
  158   150   149 1
  159   151   150 1
  160   152   151 1
  161   153   152 1
  162   154   138 1
  163   155   138 1
  164   156   143 1
  165   157   147 1
  166   158   151 1
  167   160   159 1
  168   161   160 1
  169   162   161 1
  170   163   161 1
  171   164   163 1
  172   165   159 1
  173   165   164 1
  174   166   165 1
  175   167   166 1
  176   168   167 1
  177   169   168 1
  178   170   169 1
  179   171   170 1
  180   172   171 1
  181   173   172 1
  182   174   153 1
  183   174   173 1
  184   175   159 1
  185   176   159 1
  186   177   164 1
  187   178   168 1
  188   179   172 1
  189   180   179 1
  190   181   179 1
  191   182   179 1
  192   183   178 1
  193   184   178 1
  194   185   178 1
  195   186   177 1
  196   187   177 1
  197   188   177 1
  198   189   176 1
  199   190   176 1
  200   191   176 1
  201   192   175 1
  202   193   175 1
  203   194   175 1
  204   195   160 1
  205   196   160 1
  206   197   158 1
  207   198   158 1
  208   199   158 1
  209   200   157 1
  210   201   157 1
  211   202   157 1
  212   203   156 1
  213   204   156 1
  214   205   156 1
  215   206   155 1
  216   207   155 1
  217   208   155 1
  218   209   154 1
  219   210   154 1
  220   211   154 1
  221   212   141 1
  222   213   146 1
  223   214   145 1
  224   215   142 1
  225   216   142 1
  226   217   174 1
  227   218   173 1
  228   219   171 1
  229   220   170 1
  230   221   169 1
  231   222   140 1
  232   223   167 1
  233   224   166 1
  234   225   165 1
  235   226   163 1
  236   227   161 1
  237   228   139 1
  238   229   139 1
  239   230   153 1
  240   231   152 1
  241   232   150 1
  242   233   149 1
  243   234   148 1
  244   235   162 1
  245   65    153 1
  246   65    174 1
@<TRIPOS>SUBSTRUCTURE
      1 CLA               1 ****               0 ****  **** 
      2 LUT             138 ****               0 ****  **** 
