@<TRIPOS>MOLECULE
Cpptraj generated mol2 file.
  235   246     2     0     0
SMALL
USER_CHARGES


@<TRIPOS>ATOM
      1 CAA        79.8988   57.7289   34.4095 a2         1 CLA     -0.055900
      2 CAB        79.9422   61.6276   43.0939 c8         1 CLA     -0.148500
      3 CAC        73.2284   57.2306   42.9165 a2         1 CLA     -0.012600
      4 CAD        75.5995   55.0684   35.4999 ck         1 CLA      0.398800
      5 NA         78.9211   57.8979   37.7490 ns         1 CLA     -0.225500
      6 CBA        81.0720   57.5621   33.4294 a2         1 CLA     -0.135000
      7 CBB        81.1513   62.0474   43.5006 c0         1 CLA     -0.395200
      8 CBC        73.3725   55.6976   43.1139 a3         1 CLA     -0.037700
      9 CBD        77.0621   55.5762   35.0500 a1         1 CLA     -0.053900
     10 NB         78.8918   59.4245   40.2099 nm         1 CLA     -0.295700
     11 OBD        75.0125   54.2882   34.7434 o2         1 CLA     -0.494600
     12 CGA        81.5400   56.1617   32.9277 c4         1 CLA      0.827000
     13 CGD        78.0068   54.4510   34.8367 c4         1 CLA      0.655300
     14 ND         76.1295   57.0218   38.2651 nm         1 CLA     -0.291600
     15 CED        78.4748   52.2358   35.3972 a3         1 CLA      0.005400
     16 CHA        77.4956   56.4640   36.2544 cs         1 CLA     -0.123800
     17 CHB        80.6638   59.3996   38.5998 aa         1 CLA     -0.291900
     18 CHC        77.6473   59.6822   42.3463 aa         1 CLA     -0.090400
     19 CHD        74.3024   57.1937   39.8396 aa         1 CLA     -0.052000
     20 CMA        82.2842   57.2253   37.0491 a3         1 CLA     -0.230700
     21 CMB        81.9355   61.4980   40.3988 a3         1 CLA     -0.180800
     22 CMC        75.5057   58.8445   44.5447 a3         1 CLA     -0.134000
     23 CMD        72.8197   55.3480   37.6202 a3         1 CLA     -0.141100
     24 C1         82.4740   54.0529   33.6040 a2         1 CLA      0.023000
     25 C1A        78.7496   57.0741   36.5965 ac         1 CLA     -0.015100
     26 C1B        80.0296   59.8829   39.7700 cr         1 CLA      0.054700
     27 C1C        76.5273   58.8449   42.1205 cn         1 CLA     -0.005600
     28 C1D        74.8090   56.7660   38.5781 ap         1 CLA     -0.047300
     29 O1A        81.4188   55.7700   31.7840 o2         1 CLA     -0.610800
     30 O1D        78.9429   54.4780   33.9833 o2         1 CLA     -0.558200
     31 C2         83.2657   53.3757   34.6803 c8         1 CLA     -0.325100
     32 C2A        80.0525   57.0608   35.7941 a1         1 CLA      0.098600
     33 C2B        80.6015   60.8567   40.6787 cb         1 CLA      0.088500
     34 C2C        75.5103   58.4457   43.0660 cb         1 CLA      0.053700
     35 C2D        74.1652   56.0129   37.5426 cb         1 CLA      0.058900
     36 O2A        82.1763   55.4739   33.9627 o1         1 CLA     -0.437200
     37 O2D        77.7281   53.4499   35.6815 o1         1 CLA     -0.357600
     38 C3         84.4390   52.6994   34.3799 c5         1 CLA      0.031200
     39 C3A        80.9424   57.9746   36.6650 a1         1 CLA      0.166800
     40 C3B        79.7674   60.8850   41.8080 cb         1 CLA      0.035000
     41 C3C        74.5008   57.7932   42.3815 cb         1 CLA     -0.089900
     42 C3D        75.2150   55.7708   36.6548 cb         1 CLA     -0.035900
     43 C4         84.5499   51.1900   34.2126 a3         1 CLA     -0.053300
     44 C4A        80.1760   58.3702   37.7787 ac         1 CLA      0.001800
     45 C4B        78.6812   59.9946   41.4419 cn         1 CLA     -0.020900
     46 C4C        74.9411   57.7493   40.9724 cr         1 CLA     -0.044400
     47 C4D        76.3391   56.5377   37.0666 c6         1 CLA     -0.046000
     48 C5         85.7851   53.5253   34.4613 a2         1 CLA     -0.070400
     49 C6         86.6903   53.1869   35.5928 a2         1 CLA      0.043900
     50 C7         87.5353   54.3736   36.1676 a2         1 CLA     -0.150000
     51 C8         86.8050   55.1781   37.2461 a1         1 CLA      0.064200
     52 C9         85.6339   56.0363   36.7631 a3         1 CLA     -0.259300
     53 C10        87.8815   56.0042   37.9793 a2         1 CLA     -0.071900
     54 C11        87.5225   56.5922   39.4010 a2         1 CLA      0.014500
     55 C12        87.6325   55.5121   40.5120 a2         1 CLA     -0.112100
     56 C13        87.8469   56.0886   41.9791 a1         1 CLA      0.089200
     57 C14        87.9525   54.9189   42.9868 a3         1 CLA     -0.239100
     58 C15        86.7038   57.0610   42.4192 a2         1 CLA     -0.102200
     59 C16        87.0450   58.0321   43.6037 a2         1 CLA      0.023900
     60 C17        85.8350   58.7877   44.1945 a2         1 CLA     -0.105700
     61 C18        84.7885   58.0168   45.0242 a1         1 CLA      0.206800
     62 C19        85.2994   57.1291   46.1924 a3         1 CLA     -0.280100
     63 C20        83.9450   59.0897   45.6660 a3         1 CLA     -0.280100
     64 NC         76.2514   58.3230   40.8988 nx         1 CLA     -0.309200
     65 MG         77.4675   58.2110   39.2293 mg         1 CLA      0.895000
     66 HMD3       72.8567   54.5557   36.8069 dc         1 CLA      0.064300
     67 HMD2       72.7434   54.9976   38.6519 dc         1 CLA      0.064300
     68 HMD1       71.9930   56.0225   37.3190 dc         1 CLA      0.064300
     69 HMC3       74.5107   59.2450   44.8149 dc         1 CLA      0.052100
     70 HMC2       75.8093   57.9355   45.0733 dc         1 CLA      0.052100
     71 HMC1       76.1185   59.6994   44.7675 dc         1 CLA      0.052100
     72 HMB3       82.0244   62.4206   40.8727 dc         1 CLA      0.063600
     73 HMB2       82.7010   60.7859   40.6905 dc         1 CLA      0.063600
     74 HMB1       82.0549   61.7040   39.3287 dc         1 CLA      0.063600
     75 HMA3       82.9286   57.7570   37.7457 dc         1 CLA      0.058300
     76 HMA2       81.9553   56.3655   37.5068 dc         1 CLA      0.058300
     77 HMA1       82.8411   57.0324   36.1656 dc         1 CLA      0.058300
     78 HED3       78.2670   51.5117   36.0845 dc         1 CLA      0.079300
     79 HED2       78.0832   51.7915   34.4900 dc         1 CLA      0.079300
     80 HED1       79.5556   52.3986   35.2076 dc         1 CLA      0.079300
     81 HBC3       73.5477   55.1698   42.1761 dc         1 CLA      0.016300
     82 HBC2       74.0909   55.4906   43.9601 dc         1 CLA      0.016300
     83 HBC1       72.4867   55.3640   43.5873 dc         1 CLA      0.016300
     84 HBB2       81.2971   62.5131   44.5024 da         1 CLA      0.183000
     85 HBB1       82.0461   61.9001   42.9395 da         1 CLA      0.183000
     86 HBA2       80.8491   58.0905   32.5373 dc         1 CLA      0.029400
     87 HBA1       81.9599   58.0597   33.7274 dc         1 CLA      0.029400
     88 HAC2       73.0792   57.6745   43.8948 dc         1 CLA      0.029300
     89 HAC1       72.3554   57.5006   42.3737 dc         1 CLA      0.029300
     90 HAA2       79.0175   57.2885   33.9164 dc         1 CLA      0.028700
     91 HAA1       79.6400   58.8136   34.5593 dc         1 CLA      0.028700
     92 H203       84.5060   59.5429   46.4733 dc         1 CLA      0.065600
     93 H202       83.6779   59.8730   44.8410 dc         1 CLA      0.065600
     94 H201       82.9798   58.7941   46.0880 dc         1 CLA      0.065600
     95 H193       86.1473   57.7930   46.6048 dc         1 CLA      0.065600
     96 H192       84.5405   56.9027   46.9514 dc         1 CLA      0.065600
     97 H191       85.6653   56.1704   45.8592 dc         1 CLA      0.065600
     98 H172       86.2671   59.5542   44.8585 dc         1 CLA      0.027600
     99 H171       85.3493   59.3583   43.3927 dc         1 CLA      0.027600
    100 H162       87.6166   57.4489   44.3658 dc         1 CLA      0.002900
    101 H161       87.7762   58.7558   43.2136 dc         1 CLA      0.002900
    102 H152       86.4838   57.6553   41.5723 dc         1 CLA      0.029100
    103 H151       85.8292   56.5078   42.6318 dc         1 CLA      0.029100
    104 H143       87.1684   54.6575   43.6552 dc         1 CLA      0.063600
    105 H142       88.2169   53.9885   42.4503 dc         1 CLA      0.063600
    106 H141       88.7878   55.0489   43.6625 dc         1 CLA      0.063600
    107 H122       86.6569   55.0008   40.4997 dc         1 CLA      0.032500
    108 H121       88.3677   54.7378   40.3012 dc         1 CLA      0.032500
    109 H112       88.3175   57.3404   39.6516 dc         1 CLA      0.006600
    110 H111       86.5535   57.0318   39.3245 dc         1 CLA      0.006600
    111 H102       88.8683   55.4579   38.0235 dc         1 CLA      0.024100
    112 H101       87.9906   56.9178   37.4019 dc         1 CLA      0.024100
    113 HHD        73.2769   56.7865   40.0951 da         1 CLA      0.174300
    114 HHC        77.6072   60.1235   43.3839 da         1 CLA      0.136800
    115 HHB        81.6413   59.7012   38.3788 da         1 CLA      0.138300
    116 HBD        76.8740   56.1235   34.1909 dc         1 CLA      0.107700
    117 HAB        79.0866   61.8637   43.7315 da         1 CLA      0.155200
    118 H93        85.9156   56.8413   36.1609 dc         1 CLA      0.069500
    119 H92        84.8918   55.3918   36.3460 dc         1 CLA      0.069500
    120 H91        85.1764   56.3631   37.6854 dc         1 CLA      0.069500
    121 H8         86.4761   54.3935   37.9294 dc         1 CLA      0.029300
    122 H72        88.3486   53.8707   36.6079 dc         1 CLA      0.044400
    123 H71        87.8757   55.0344   35.3233 dc         1 CLA      0.044400
    124 H62        86.0712   52.7498   36.4246 dc         1 CLA      0.015600
    125 H61        87.3978   52.4074   35.2248 dc         1 CLA      0.015600
    126 H52        86.3238   53.2832   33.5582 dc         1 CLA      0.033200
    127 H51        85.5864   54.5840   34.4710 dc         1 CLA      0.033200
    128 H43        83.5411   50.8633   34.2717 dc         1 CLA      0.037000
    129 H42        85.0565   50.9962   33.2365 dc         1 CLA      0.037000
    130 H41        85.2349   50.8383   35.0164 dc         1 CLA      0.037000
    131 H3A        81.0817   58.8725   36.1440 dc         1 CLA      0.041100
    132 H2A        80.4790   56.0581   35.7078 dc         1 CLA      0.083100
    133 H2         82.8593   53.4617   35.7319 da         1 CLA      0.180900
    134 H18        84.2006   57.3593   44.4034 dc         1 CLA     -0.003900
    135 H13        88.7745   56.6764   42.0409 dc         1 CLA      0.019700
    136 H12        81.5696   53.4746   33.5610 dc         1 CLA      0.120400
    137 H11        83.0138   53.8350   32.6291 dc         1 CLA      0.120400
    138 C1         69.6936   60.8964   50.2302 Z1         2 LUT      0.509236
    139 C2         68.1679   60.7032   50.8037 Z2         2 LUT     -0.434695
    140 C3         67.4521   61.9964   51.0158 Z3         2 LUT      0.437453
    141 O3         67.6173   62.4359   52.3752 S1         2 LUT     -0.547129
    142 C4         67.9244   63.0863   50.1508 Z4         2 LUT     -0.468603
    143 C5         68.7025   62.7558   48.9443 Z5         2 LUT      0.279246
    144 C6         69.6244   61.7496   48.9588 Z6         2 LUT     -0.305473
    145 C7         70.2321   61.1888   47.7709 Z7         2 LUT      0.069402
    146 C8         70.9996   61.8749   46.9418 Z8         2 LUT     -0.191631
    147 C9         71.5279   61.4238   45.6573 Z9         2 LUT      0.196698
    148 C10        72.6016   62.0485   45.1740 Y1         2 LUT     -0.208611
    149 C11        73.2809   61.8459   43.8677 Y2         2 LUT      0.030784
    150 C12        74.3772   62.6402   43.5767 Y3         2 LUT     -0.220316
    151 C13        75.2563   62.7270   42.3872 Y4         2 LUT      0.215937
    152 C14        76.4309   63.4671   42.3757 Y5         2 LUT     -0.185793
    153 C15        77.4417   63.4974   41.3375 Y6         2 LUT     -0.057835
    154 C16        70.3633   59.4373   50.0938 Y7         2 LUT     -0.405615
    155 C17        70.5227   61.7495   51.2147 Y7         2 LUT     -0.405615
    156 C18        68.2058   63.4168   47.6411 Y9         2 LUT     -0.369639
    157 C19        70.9738   60.2823   44.8823 W1         2 LUT     -0.333362
    158 C20        74.6720   62.0267   41.1790 W2         2 LUT     -0.323439
    159 C21        88.9035   64.2723   34.7325 Z1         2 LUT      0.406104
    160 C22        89.2815   63.4047   33.4906 Z2         2 LUT     -0.404965
    161 C23        89.3488   64.1072   32.1822 Z3         2 LUT      0.391255
    162 O23        89.2213   63.1027   31.1365 S1         2 LUT     -0.528210
    163 C24        88.1412   65.0580   32.1054 W6         2 LUT     -0.258361
    164 C25        87.3301   65.4291   33.1037 Z5         2 LUT      0.133546
    165 C26        87.4056   64.7339   34.4692 W8         2 LUT     -0.147008
    166 C27        86.7759   65.4605   35.6507 Z7         2 LUT      0.023843
    167 C28        85.5461   65.2083   36.1772 Z8         2 LUT     -0.216987
    168 C29        84.9345   65.8518   37.3157 Z9         2 LUT      0.206524
    169 C30        83.7266   65.3150   37.7476 Y1         2 LUT     -0.215556
    170 C31        82.9233   65.4927   38.9603 Y2         2 LUT      0.025142
    171 C32        81.7996   64.8306   39.2989 Y3         2 LUT     -0.212209
    172 C33        80.9855   64.8180   40.5351 Y4         2 LUT      0.240937
    173 C34        79.7361   64.2796   40.5539 Y5         2 LUT     -0.218862
    174 C35        78.6599   64.1938   41.5766 Y6         2 LUT     -0.023547
    175 C36        89.9975   65.4641   34.7663 Y7         2 LUT     -0.393485
    176 C37        89.0158   63.3551   35.9501 Y7         2 LUT     -0.393485
    177 C38        86.0951   66.2400   32.8330 Y9         2 LUT     -0.387526
    178 C39        85.6423   66.7960   38.3178 W1         2 LUT     -0.322618
    179 C40        81.6005   65.5551   41.6947 W2         2 LUT     -0.358472
    180 H403       81.2046   65.2967   42.6317 R7         2 LUT      0.097720
    181 H402       82.6327   65.2732   41.8720 R7         2 LUT      0.097720
    182 H401       81.4855   66.5998   41.6399 R7         2 LUT      0.097720
    183 H393       86.0840   66.2730   39.1870 R4         2 LUT      0.082505
    184 H392       86.4620   67.4736   37.9576 R4         2 LUT      0.082505
    185 H391       84.9317   67.4349   38.8408 R4         2 LUT      0.082505
    186 H383       85.8394   66.9151   33.6362 R1         2 LUT      0.104030
    187 H382       86.2262   66.7646   31.9120 R1         2 LUT      0.104030
    188 H381       85.1743   65.6142   32.7427 R1         2 LUT      0.104030
    189 H373       90.0763   63.0146   35.9007 T4         2 LUT      0.089537
    190 H372       88.9572   63.9425   36.9321 T4         2 LUT      0.089537
    191 H371       88.3189   62.5593   35.8774 T4         2 LUT      0.089537
    192 H363       89.6344   66.2511   34.0709 T4         2 LUT      0.089537
    193 H362       89.9607   65.8969   35.6871 T4         2 LUT      0.089537
    194 H361       90.9668   65.1037   34.3956 T4         2 LUT      0.089537
    195 H222       90.3037   62.9624   33.7072 U2         2 LUT      0.127376
    196 H221       88.5654   62.6039   33.3620 U2         2 LUT      0.127376
    197 H203       73.8008   62.5366   40.8761 R7         2 LUT      0.087068
    198 H202       75.3240   61.9995   40.3400 R7         2 LUT      0.087068
    199 H201       74.4483   60.9732   41.4018 R7         2 LUT      0.087068
    200 H193       69.8809   60.3679   44.9376 R4         2 LUT      0.089716
    201 H192       71.0801   60.3629   43.8179 R4         2 LUT      0.089716
    202 H191       71.2471   59.2977   45.2564 R4         2 LUT      0.089716
    203 H183       68.3324   62.7662   46.7604 R1         2 LUT      0.094572
    204 H182       67.1458   63.6971   47.7300 R1         2 LUT      0.094572
    205 H181       68.7238   64.3833   47.4786 R1         2 LUT      0.094572
    206 H173       70.2912   62.8047   51.4092 T4         2 LUT      0.093752
    207 H172       70.6031   61.2327   52.2367 T4         2 LUT      0.093752
    208 H171       71.5581   61.7924   50.8736 T4         2 LUT      0.093752
    209 H163       71.2998   59.5639   49.6893 T4         2 LUT      0.093752
    210 H162       70.3608   58.9711   51.0217 T4         2 LUT      0.093752
    211 H161       69.8487   58.7838   49.3925 T4         2 LUT      0.093752
    212 HO3        67.1310   61.8800   52.9725 Q1         2 LUT      0.300121
    213 H8         71.2409   62.9669   47.1035 U7         2 LUT      0.080784
    214 H7         70.0064   60.1604   47.5980 U6         2 LUT      0.042190
    215 H42        67.0821   63.7233   49.8202 U5         2 LUT      0.145166
    216 H41        68.5749   63.8200   50.6846 U5         2 LUT      0.145166
    217 H35        78.7490   64.7080   42.6044 T3         2 LUT      0.077919
    218 H34        79.3526   63.9679   39.5325 T2         2 LUT      0.073626
    219 H32        81.2814   64.3081   38.4982 T1         2 LUT      0.092510
    220 H31        83.3280   66.1275   39.7003 U9         2 LUT      0.070048
    221 H30        83.2304   64.5312   37.1283 U8         2 LUT      0.085442
    222 H3         66.3300   61.7741   50.8329 U3         2 LUT     -0.031596
    223 H28        84.8480   64.5627   35.6420 U7         2 LUT      0.084728
    224 H27        87.6465   66.0900   36.0005 U6         2 LUT      0.087291
    225 H26        86.9217   63.7642   34.1825 Q6         2 LUT      0.075325
    226 H24        88.0384   65.4734   31.1138 Q5         2 LUT      0.094482
    227 H23        90.2708   64.7377   32.0861 U3         2 LUT     -0.024869
    228 H22        67.5932   60.1272   50.0227 U2         2 LUT      0.127376
    229 H21        68.1714   60.1389   51.7632 U2         2 LUT      0.127376
    230 H15        77.3045   62.9453   40.4296 T3         2 LUT      0.093200
    231 H14        76.7007   64.0361   43.2423 T2         2 LUT      0.068865
    232 H12        74.7491   63.2790   44.3750 T1         2 LUT      0.095507
    233 H11        72.8419   61.0732   43.1589 U9         2 LUT      0.068930
    234 H10        72.9750   62.9552   45.6735 U8         2 LUT      0.083911
    235 H1         89.8832   63.3236   30.4475 Q1         2 LUT      0.297311
@<TRIPOS>BOND
    1     6     1 1
    2     7     2 1
    3     8     3 1
    4     9     4 1
    5    11     4 1
    6    12     6 1
    7    13     9 1
    8    16     9 1
    9    25     5 1
   10    25    16 1
   11    26    10 1
   12    26    17 1
   13    27    18 1
   14    28    14 1
   15    28    19 1
   16    29    12 1
   17    30    13 1
   18    31    24 1
   19    32     1 1
   20    32    25 1
   21    33    21 1
   22    33    26 1
   23    34    22 1
   24    34    27 1
   25    35    23 1
   26    35    28 1
   27    36    12 1
   28    36    24 1
   29    37    13 1
   30    37    15 1
   31    38    31 1
   32    39    20 1
   33    39    32 1
   34    40     2 1
   35    40    33 1
   36    41     3 1
   37    41    34 1
   38    42     4 1
   39    42    35 1
   40    43    38 1
   41    44     5 1
   42    44    17 1
   43    44    39 1
   44    45    10 1
   45    45    18 1
   46    45    40 1
   47    46    19 1
   48    46    41 1
   49    47    14 1
   50    47    16 1
   51    47    42 1
   52    48    38 1
   53    49    48 1
   54    50    49 1
   55    51    50 1
   56    52    51 1
   57    53    51 1
   58    54    53 1
   59    55    54 1
   60    56    55 1
   61    57    56 1
   62    58    56 1
   63    59    58 1
   64    60    59 1
   65    61    60 1
   66    62    61 1
   67    63    61 1
   68    64    27 1
   69    64    46 1
   70    65     5 1
   71    65    10 1
   72    65    64 1
   73    65    14 1
   74    66    23 1
   75    67    23 1
   76    68    23 1
   77    69    22 1
   78    70    22 1
   79    71    22 1
   80    72    21 1
   81    73    21 1
   82    74    21 1
   83    75    20 1
   84    76    20 1
   85    77    20 1
   86    78    15 1
   87    79    15 1
   88    80    15 1
   89    81     8 1
   90    82     8 1
   91    83     8 1
   92    84     7 1
   93    85     7 1
   94    86     6 1
   95    87     6 1
   96    88     3 1
   97    89     3 1
   98    90     1 1
   99    91     1 1
  100    92    63 1
  101    93    63 1
  102    94    63 1
  103    95    62 1
  104    96    62 1
  105    97    62 1
  106    98    60 1
  107    99    60 1
  108   100    59 1
  109   101    59 1
  110   102    58 1
  111   103    58 1
  112   104    57 1
  113   105    57 1
  114   106    57 1
  115   107    55 1
  116   108    55 1
  117   109    54 1
  118   110    54 1
  119   111    53 1
  120   112    53 1
  121   113    19 1
  122   114    18 1
  123   115    17 1
  124   116     9 1
  125   117     2 1
  126   118    52 1
  127   119    52 1
  128   120    52 1
  129   121    51 1
  130   122    50 1
  131   123    50 1
  132   124    49 1
  133   125    49 1
  134   126    48 1
  135   127    48 1
  136   128    43 1
  137   129    43 1
  138   130    43 1
  139   131    39 1
  140   132    32 1
  141   133    31 1
  142   134    61 1
  143   135    56 1
  144   136    24 1
  145   137    24 1
  146   139   138 1
  147   140   139 1
  148   141   140 1
  149   142   140 1
  150   143   142 1
  151   144   138 1
  152   144   143 1
  153   145   144 1
  154   146   145 1
  155   147   146 1
  156   148   147 1
  157   149   148 1
  158   150   149 1
  159   151   150 1
  160   152   151 1
  161   153   152 1
  162   154   138 1
  163   155   138 1
  164   156   143 1
  165   157   147 1
  166   158   151 1
  167   160   159 1
  168   161   160 1
  169   162   161 1
  170   163   161 1
  171   164   163 1
  172   165   159 1
  173   165   164 1
  174   166   165 1
  175   167   166 1
  176   168   167 1
  177   169   168 1
  178   170   169 1
  179   171   170 1
  180   172   171 1
  181   173   172 1
  182   174   153 1
  183   174   173 1
  184   175   159 1
  185   176   159 1
  186   177   164 1
  187   178   168 1
  188   179   172 1
  189   180   179 1
  190   181   179 1
  191   182   179 1
  192   183   178 1
  193   184   178 1
  194   185   178 1
  195   186   177 1
  196   187   177 1
  197   188   177 1
  198   189   176 1
  199   190   176 1
  200   191   176 1
  201   192   175 1
  202   193   175 1
  203   194   175 1
  204   195   160 1
  205   196   160 1
  206   197   158 1
  207   198   158 1
  208   199   158 1
  209   200   157 1
  210   201   157 1
  211   202   157 1
  212   203   156 1
  213   204   156 1
  214   205   156 1
  215   206   155 1
  216   207   155 1
  217   208   155 1
  218   209   154 1
  219   210   154 1
  220   211   154 1
  221   212   141 1
  222   213   146 1
  223   214   145 1
  224   215   142 1
  225   216   142 1
  226   217   174 1
  227   218   173 1
  228   219   171 1
  229   220   170 1
  230   221   169 1
  231   222   140 1
  232   223   167 1
  233   224   166 1
  234   225   165 1
  235   226   163 1
  236   227   161 1
  237   228   139 1
  238   229   139 1
  239   230   153 1
  240   231   152 1
  241   232   150 1
  242   233   149 1
  243   234   148 1
  244   235   162 1
  245   65    153 1
  246   65    174 1
@<TRIPOS>SUBSTRUCTURE
      1 CLA               1 ****               0 ****  **** 
      2 LUT             138 ****               0 ****  **** 
