@<TRIPOS>MOLECULE
Cpptraj generated mol2 file.
  235   246     2     0     0
SMALL
USER_CHARGES


@<TRIPOS>ATOM
      1 CAA        79.9700   57.1537   34.7544 a2         1 CLA     -0.055900
      2 CAB        80.1166   60.9978   43.7333 c8         1 CLA     -0.148500
      3 CAC        72.9276   57.1316   43.0281 a2         1 CLA     -0.012600
      4 CAD        75.8983   54.6892   35.9540 ck         1 CLA      0.398800
      5 NA         79.0998   57.7225   38.0979 ns         1 CLA     -0.225500
      6 CBA        81.2160   57.0647   33.8440 a2         1 CLA     -0.135000
      7 CBB        81.2443   60.8963   44.4765 c0         1 CLA     -0.395200
      8 CBC        72.9196   55.6534   43.4489 a3         1 CLA     -0.037700
      9 CBD        77.4560   54.9895   35.9112 a1         1 CLA     -0.053900
     10 NB         78.9719   59.0667   40.8265 nm         1 CLA     -0.295700
     11 OBD        75.3129   53.8370   35.3367 o2         1 CLA     -0.494600
     12 CGA        81.6852   55.6661   33.3739 c4         1 CLA      0.827000
     13 CGD        78.3300   53.7775   36.1237 c4         1 CLA      0.655300
     14 ND         76.1325   56.9634   38.5934 nm         1 CLA     -0.291600
     15 CED        78.6905   51.8163   37.5387 a3         1 CLA      0.005400
     16 CHA        77.7733   56.1661   36.8768 cs         1 CLA     -0.123800
     17 CHB        80.8354   59.2086   39.0514 aa         1 CLA     -0.291900
     18 CHC        77.6164   59.3445   42.7924 aa         1 CLA     -0.090400
     19 CHD        74.2231   56.8607   40.1667 aa         1 CLA     -0.052000
     20 CMA        82.5131   57.1938   37.3944 a3         1 CLA     -0.230700
     21 CMB        82.2325   60.9557   41.1796 a3         1 CLA     -0.180800
     22 CMC        75.3763   58.5213   44.8433 a3         1 CLA     -0.134000
     23 CMD        72.9236   55.4560   37.7048 a3         1 CLA     -0.141100
     24 C1         82.5150   53.6150   34.2492 a2         1 CLA      0.023000
     25 C1A        78.8997   56.9383   37.0282 ac         1 CLA     -0.015100
     26 C1B        80.2297   59.5262   40.2809 cr         1 CLA      0.054700
     27 C1C        76.4269   58.6449   42.4167 cn         1 CLA     -0.005600
     28 C1D        74.8650   56.5396   38.9530 ap         1 CLA     -0.047300
     29 O1A        81.3089   55.0409   32.3797 o2         1 CLA     -0.610800
     30 O1D        79.4062   53.5281   35.5986 o2         1 CLA     -0.558200
     31 C2         83.2963   53.1066   35.3473 c8         1 CLA     -0.325100
     32 C2A        80.2116   56.8544   36.2604 a1         1 CLA      0.098600
     33 C2B        80.8921   60.2605   41.3245 cb         1 CLA      0.088500
     34 C2C        75.3410   58.2570   43.3239 cb         1 CLA      0.053700
     35 C2D        74.3578   55.8236   37.8540 cb         1 CLA      0.058900
     36 O2A        82.4493   55.0861   34.3638 o1         1 CLA     -0.437200
     37 O2D        77.8054   52.9342   37.1067 o1         1 CLA     -0.357600
     38 C3         84.5832   52.7641   35.2865 c5         1 CLA      0.031200
     39 C3A        81.2205   57.8120   36.9499 a1         1 CLA      0.166800
     40 C3B        79.9570   60.3142   42.4350 cb         1 CLA      0.035000
     41 C3C        74.3213   57.6462   42.5613 cb         1 CLA     -0.089900
     42 C3D        75.4515   55.4647   37.0697 cb         1 CLA     -0.035900
     43 C4         85.0476   51.3633   34.7736 a3         1 CLA     -0.053300
     44 C4A        80.3834   58.2929   38.1418 ac         1 CLA      0.001800
     45 C4B        78.7798   59.5529   42.0596 cn         1 CLA     -0.020900
     46 C4C        74.8660   57.5261   41.2224 cr         1 CLA     -0.044400
     47 C4D        76.5491   56.2573   37.5142 c6         1 CLA     -0.046000
     48 C5         85.6186   53.7100   35.7985 a2         1 CLA     -0.070400
     49 C6         86.1015   53.3943   37.1706 a2         1 CLA      0.043900
     50 C7         87.3356   54.1721   37.5843 a2         1 CLA     -0.150000
     51 C8         87.1258   55.3577   38.5581 a1         1 CLA      0.064200
     52 C9         85.9094   56.2803   38.1287 a3         1 CLA     -0.259300
     53 C10        88.4035   56.1811   38.8289 a2         1 CLA     -0.071900
     54 C11        88.5419   57.1730   40.0380 a2         1 CLA      0.014500
     55 C12        88.4382   56.4061   41.3628 a2         1 CLA     -0.112100
     56 C13        88.7811   57.1819   42.6487 a1         1 CLA      0.089200
     57 C14        90.2667   57.7860   42.6672 a3         1 CLA     -0.239100
     58 C15        88.4894   56.3497   43.8793 a2         1 CLA     -0.102200
     59 C16        88.2914   56.9907   45.2551 a2         1 CLA      0.023900
     60 C17        87.1930   58.0737   45.2897 a2         1 CLA     -0.105700
     61 C18        85.8000   57.8128   44.7103 a1         1 CLA      0.206800
     62 C19        84.9939   56.8031   45.6386 a3         1 CLA     -0.280100
     63 C20        85.0013   59.0414   44.4317 a3         1 CLA     -0.280100
     64 NC         76.1440   58.0845   41.1715 nx         1 CLA     -0.309200
     65 MG         77.4905   58.0622   39.6658 mg         1 CLA      0.895000
     66 HMD3       72.2762   56.3033   37.4656 dc         1 CLA      0.064300
     67 HMD2       72.8096   54.6516   36.9973 dc         1 CLA      0.064300
     68 HMD1       72.5574   55.1510   38.7097 dc         1 CLA      0.064300
     69 HMC3       74.3588   58.4115   45.1314 dc         1 CLA      0.052100
     70 HMC2       76.0477   57.7539   45.3046 dc         1 CLA      0.052100
     71 HMC1       75.6847   59.5078   44.9157 dc         1 CLA      0.052100
     72 HMB3       83.0406   60.2776   41.2785 dc         1 CLA      0.063600
     73 HMB2       82.3633   61.4556   40.2075 dc         1 CLA      0.063600
     74 HMB1       82.3591   61.7387   41.9178 dc         1 CLA      0.063600
     75 HMA3       82.9752   57.9738   37.9866 dc         1 CLA      0.058300
     76 HMA2       82.5765   56.3658   38.0544 dc         1 CLA      0.058300
     77 HMA1       83.1136   56.9948   36.5047 dc         1 CLA      0.058300
     78 HED3       79.2554   52.3378   38.3368 dc         1 CLA      0.079300
     79 HED2       78.1330   51.0627   38.1462 dc         1 CLA      0.079300
     80 HED1       79.4058   51.3943   36.8086 dc         1 CLA      0.079300
     81 HBC3       71.9942   55.4904   44.0107 dc         1 CLA      0.016300
     82 HBC2       72.9433   55.0621   42.4792 dc         1 CLA      0.016300
     83 HBC1       73.8005   55.4674   44.1041 dc         1 CLA      0.016300
     84 HBB2       81.3284   61.4233   45.4324 da         1 CLA      0.183000
     85 HBB1       82.1457   60.4141   44.1282 da         1 CLA      0.183000
     86 HBA2       81.0405   57.5960   32.9519 dc         1 CLA      0.029400
     87 HBA1       82.0265   57.6453   34.3646 dc         1 CLA      0.029400
     88 HAC2       72.4610   57.7693   43.7696 dc         1 CLA      0.029300
     89 HAC1       72.1632   57.3142   42.3062 dc         1 CLA      0.029300
     90 HAA2       79.3939   56.3072   34.3935 dc         1 CLA      0.028700
     91 HAA1       79.3348   58.0904   34.6044 dc         1 CLA      0.028700
     92 H203       85.0438   59.6400   45.3405 dc         1 CLA      0.065600
     93 H202       85.4560   59.5460   43.6203 dc         1 CLA      0.065600
     94 H201       83.9292   58.7405   44.2789 dc         1 CLA      0.065600
     95 H193       84.6274   57.2686   46.5327 dc         1 CLA      0.065600
     96 H192       84.1450   56.4372   45.0870 dc         1 CLA      0.065600
     97 H191       85.6703   56.0881   46.0477 dc         1 CLA      0.065600
     98 H172       86.9702   58.3082   46.3930 dc         1 CLA      0.027600
     99 H171       87.5942   58.9596   44.7637 dc         1 CLA      0.027600
    100 H162       87.9279   56.1961   45.9217 dc         1 CLA      0.002900
    101 H161       89.2462   57.4100   45.5348 dc         1 CLA      0.002900
    102 H152       87.5816   55.7056   43.6761 dc         1 CLA      0.029100
    103 H151       89.3243   55.6533   43.9561 dc         1 CLA      0.029100
    104 H143       90.3116   58.2205   43.6427 dc         1 CLA      0.063600
    105 H142       90.9194   56.9380   42.6104 dc         1 CLA      0.063600
    106 H141       90.4171   58.5581   41.9223 dc         1 CLA      0.063600
    107 H122       87.3499   56.1638   41.4860 dc         1 CLA      0.032500
    108 H121       89.0639   55.5246   41.3161 dc         1 CLA      0.032500
    109 H112       89.4919   57.6874   39.8153 dc         1 CLA      0.006600
    110 H111       87.7560   57.8978   39.9455 dc         1 CLA      0.006600
    111 H102       89.1954   55.3976   39.0053 dc         1 CLA      0.024100
    112 H101       88.5597   56.7551   37.8926 dc         1 CLA      0.024100
    113 HHD        73.2920   56.4407   40.4652 da         1 CLA      0.174300
    114 HHC        77.7229   59.7585   43.7713 da         1 CLA      0.136800
    115 HHB        81.8648   59.5736   38.8925 da         1 CLA      0.138300
    116 HBD        77.6236   55.2125   34.8357 dc         1 CLA      0.107700
    117 HAB        79.2440   61.4487   44.1335 da         1 CLA      0.155200
    118 H93        85.9819   56.6191   37.0638 dc         1 CLA      0.069500
    119 H92        84.9720   55.6389   38.2345 dc         1 CLA      0.069500
    120 H91        85.9241   57.1731   38.6782 dc         1 CLA      0.069500
    121 H8         86.7912   54.9425   39.5161 dc         1 CLA      0.029300
    122 H72        88.0031   53.3536   37.9284 dc         1 CLA      0.044400
    123 H71        87.8462   54.4892   36.6304 dc         1 CLA      0.044400
    124 H62        85.2980   53.3571   37.9529 dc         1 CLA      0.015600
    125 H61        86.3823   52.2703   37.0120 dc         1 CLA      0.015600
    126 H52        86.4984   53.6361   35.1135 dc         1 CLA      0.033200
    127 H51        85.4244   54.8043   35.6993 dc         1 CLA      0.033200
    128 H43        84.1591   50.7941   34.3915 dc         1 CLA      0.037000
    129 H42        85.8589   51.5425   34.0335 dc         1 CLA      0.037000
    130 H41        85.5427   50.7766   35.5278 dc         1 CLA      0.037000
    131 H3A        81.4693   58.6654   36.3596 dc         1 CLA      0.041100
    132 H2A        80.6105   55.8981   36.3502 dc         1 CLA      0.083100
    133 H2         82.7474   52.8085   36.2203 da         1 CLA      0.180900
    134 H18        86.0483   57.2300   43.8328 dc         1 CLA     -0.003900
    135 H13        88.0996   58.0243   42.7303 dc         1 CLA      0.019700
    136 H12        81.4696   53.3375   34.4081 dc         1 CLA      0.120400
    137 H11        82.8546   53.0912   33.3689 dc         1 CLA      0.120400
    138 C1         69.7255   60.7166   50.1986 Z1         2 LUT      0.509236
    139 C2         68.3366   60.6677   50.8377 Z2         2 LUT     -0.434695
    140 C3         67.5156   62.0161   50.8013 Z3         2 LUT      0.437453
    141 O3         66.8610   62.4373   52.0358 S1         2 LUT     -0.547129
    142 C4         68.0746   63.1148   49.9495 Z4         2 LUT     -0.468603
    143 C5         68.7137   62.5910   48.7163 Z5         2 LUT      0.279246
    144 C6         69.6173   61.5556   48.8507 Z6         2 LUT     -0.305473
    145 C7         70.1573   60.9373   47.6847 Z7         2 LUT      0.069402
    146 C8         71.0824   61.5452   46.8839 Z8         2 LUT     -0.191631
    147 C9         71.4862   61.1553   45.5152 Z9         2 LUT      0.196698
    148 C10        72.6504   61.7945   45.1922 Y1         2 LUT     -0.208611
    149 C11        73.3712   61.6895   43.9927 Y2         2 LUT      0.030784
    150 C12        74.4783   62.4254   43.8291 Y3         2 LUT     -0.220316
    151 C13        75.3645   62.4253   42.6406 Y4         2 LUT      0.215937
    152 C14        76.5545   63.0914   42.6905 Y5         2 LUT     -0.185793
    153 C15        77.5865   63.1848   41.7046 Y6         2 LUT     -0.057835
    154 C16        70.3221   59.3485   50.2462 Y7         2 LUT     -0.405615
    155 C17        70.6329   61.5488   51.1844 Y7         2 LUT     -0.405615
    156 C18        68.1762   63.2854   47.4437 Y9         2 LUT     -0.369639
    157 C19        70.6960   60.2380   44.6140 W1         2 LUT     -0.333362
    158 C20        74.8797   61.9461   41.2963 W2         2 LUT     -0.323439
    159 C21        89.1518   64.4695   36.1667 Z1         2 LUT      0.406104
    160 C22        89.8433   63.8373   34.9739 Z2         2 LUT     -0.404965
    161 C23        90.0379   64.6528   33.7047 Z3         2 LUT      0.391255
    162 O23        90.7429   63.8749   32.7323 S1         2 LUT     -0.528210
    163 C24        88.6710   65.2590   33.3671 W6         2 LUT     -0.258361
    164 C25        87.6492   65.4409   34.2043 Z5         2 LUT      0.133546
    165 C26        87.7133   65.0028   35.6660 W8         2 LUT     -0.147008
    166 C27        86.8835   65.9366   36.5188 Z7         2 LUT      0.023843
    167 C28        85.6614   65.6235   36.9769 Z8         2 LUT     -0.216987
    168 C29        84.9918   65.8513   38.2444 Z9         2 LUT      0.206524
    169 C30        83.8193   65.2575   38.5252 Y1         2 LUT     -0.215556
    170 C31        83.0066   65.2550   39.6974 Y2         2 LUT      0.025142
    171 C32        81.8033   64.5660   39.8791 Y3         2 LUT     -0.212209
    172 C33        80.8749   64.5789   40.9554 Y4         2 LUT      0.240937
    173 C34        79.7011   63.9159   40.8566 Y5         2 LUT     -0.218862
    174 C35        78.6677   64.0490   41.8426 Y6         2 LUT     -0.023547
    175 C36        90.1343   65.5435   36.7151 Y7         2 LUT     -0.393485
    176 C37        89.0102   63.4178   37.2328 Y7         2 LUT     -0.393485
    177 C38        86.4218   66.1008   33.6299 Y9         2 LUT     -0.387526
    178 C39        85.6370   66.7490   39.2823 W1         2 LUT     -0.322618
    179 C40        81.2820   65.2461   42.2844 W2         2 LUT     -0.358472
    180 H403       81.1288   66.3040   42.3173 R7         2 LUT      0.097720
    181 H402       80.7430   64.8517   43.1495 R7         2 LUT      0.097720
    182 H401       82.3116   65.0429   42.5087 R7         2 LUT      0.097720
    183 H393       85.8106   66.2411   40.2490 R4         2 LUT      0.082505
    184 H392       86.6765   67.0569   38.9952 R4         2 LUT      0.082505
    185 H391       84.9822   67.6495   39.4205 R4         2 LUT      0.082505
    186 H383       86.4678   66.1705   32.5682 R1         2 LUT      0.104030
    187 H382       85.5824   65.4684   33.8257 R1         2 LUT      0.104030
    188 H381       86.0762   67.0585   34.0550 R1         2 LUT      0.104030
    189 H373       89.9823   63.0197   37.6240 T4         2 LUT      0.089537
    190 H372       88.3858   63.7070   38.1458 T4         2 LUT      0.089537
    191 H371       88.5019   62.5485   36.8080 T4         2 LUT      0.089537
    192 H363       90.2691   66.3168   35.9145 T4         2 LUT      0.089537
    193 H362       89.6163   66.0226   37.5359 T4         2 LUT      0.089537
    194 H361       91.1228   65.1549   37.0790 T4         2 LUT      0.089537
    195 H222       90.8705   63.4991   35.2436 U2         2 LUT      0.127376
    196 H221       89.1505   63.0623   34.6417 U2         2 LUT      0.127376
    197 H203       74.3695   62.7108   40.7161 R7         2 LUT      0.087068
    198 H202       75.7253   61.6214   40.6908 R7         2 LUT      0.087068
    199 H201       74.1741   61.1549   41.3747 R7         2 LUT      0.087068
    200 H193       69.6662   60.6073   44.3307 R4         2 LUT      0.089716
    201 H192       71.1061   60.0762   43.5701 R4         2 LUT      0.089716
    202 H191       70.7433   59.2443   44.9693 R4         2 LUT      0.089716
    203 H183       67.0760   63.5221   47.6038 R1         2 LUT      0.094572
    204 H182       68.6934   64.2575   47.3413 R1         2 LUT      0.094572
    205 H181       68.4935   62.6163   46.5492 R1         2 LUT      0.094572
    206 H173       70.3671   62.6321   51.3323 T4         2 LUT      0.093752
    207 H172       70.5976   61.2396   52.2739 T4         2 LUT      0.093752
    208 H171       71.6750   61.4910   50.8013 T4         2 LUT      0.093752
    209 H163       71.3271   59.2791   49.7351 T4         2 LUT      0.093752
    210 H162       70.4773   58.9215   51.2244 T4         2 LUT      0.093752
    211 H161       69.7404   58.6796   49.6610 T4         2 LUT      0.093752
    212 HO3        67.4877   62.8385   52.6986 Q1         2 LUT      0.300121
    213 H8         71.4782   62.4960   47.2481 U7         2 LUT      0.080784
    214 H7         69.6527   60.1146   47.3585 U6         2 LUT      0.042190
    215 H42        67.1757   63.6084   49.6711 U5         2 LUT      0.145166
    216 H41        68.7083   63.8097   50.4235 U5         2 LUT      0.145166
    217 H35        78.5639   64.7471   42.6750 T3         2 LUT      0.077919
    218 H34        79.5014   63.3257   39.9720 T2         2 LUT      0.073626
    219 H32        81.5035   63.9953   38.9969 T1         2 LUT      0.092510
    220 H31        83.4096   65.8984   40.4953 U9         2 LUT      0.070048
    221 H30        83.3895   64.6606   37.7207 U8         2 LUT      0.085442
    222 H3         66.6525   61.6463   50.2852 U3         2 LUT     -0.031596
    223 H28        85.0804   65.1310   36.1983 U7         2 LUT      0.084728
    224 H27        87.5654   66.5716   37.0750 U6         2 LUT      0.087291
    225 H26        87.0665   64.1270   35.6612 Q6         2 LUT      0.075325
    226 H24        88.5567   65.7272   32.3544 Q5         2 LUT      0.094482
    227 H23        90.7472   65.4652   34.0910 U3         2 LUT     -0.024869
    228 H22        67.7180   59.8915   50.3542 U2         2 LUT      0.127376
    229 H21        68.3769   60.3161   51.9292 U2         2 LUT      0.127376
    230 H15        77.8176   62.4921   40.8354 T3         2 LUT      0.093200
    231 H14        76.8055   63.5798   43.6458 T2         2 LUT      0.068865
    232 H12        74.7576   63.1228   44.6247 T1         2 LUT      0.095507
    233 H11        73.0149   61.0760   43.1656 U9         2 LUT      0.068930
    234 H10        73.1447   62.4637   45.8702 U8         2 LUT      0.083911
    235 H1         90.8662   64.2582   31.8578 Q1         2 LUT      0.297311
@<TRIPOS>BOND
    1     6     1 1
    2     7     2 1
    3     8     3 1
    4     9     4 1
    5    11     4 1
    6    12     6 1
    7    13     9 1
    8    16     9 1
    9    25     5 1
   10    25    16 1
   11    26    10 1
   12    26    17 1
   13    27    18 1
   14    28    14 1
   15    28    19 1
   16    29    12 1
   17    30    13 1
   18    31    24 1
   19    32     1 1
   20    32    25 1
   21    33    21 1
   22    33    26 1
   23    34    22 1
   24    34    27 1
   25    35    23 1
   26    35    28 1
   27    36    12 1
   28    36    24 1
   29    37    13 1
   30    37    15 1
   31    38    31 1
   32    39    20 1
   33    39    32 1
   34    40     2 1
   35    40    33 1
   36    41     3 1
   37    41    34 1
   38    42     4 1
   39    42    35 1
   40    43    38 1
   41    44     5 1
   42    44    17 1
   43    44    39 1
   44    45    10 1
   45    45    18 1
   46    45    40 1
   47    46    19 1
   48    46    41 1
   49    47    14 1
   50    47    16 1
   51    47    42 1
   52    48    38 1
   53    49    48 1
   54    50    49 1
   55    51    50 1
   56    52    51 1
   57    53    51 1
   58    54    53 1
   59    55    54 1
   60    56    55 1
   61    57    56 1
   62    58    56 1
   63    59    58 1
   64    60    59 1
   65    61    60 1
   66    62    61 1
   67    63    61 1
   68    64    27 1
   69    64    46 1
   70    65     5 1
   71    65    10 1
   72    65    64 1
   73    65    14 1
   74    66    23 1
   75    67    23 1
   76    68    23 1
   77    69    22 1
   78    70    22 1
   79    71    22 1
   80    72    21 1
   81    73    21 1
   82    74    21 1
   83    75    20 1
   84    76    20 1
   85    77    20 1
   86    78    15 1
   87    79    15 1
   88    80    15 1
   89    81     8 1
   90    82     8 1
   91    83     8 1
   92    84     7 1
   93    85     7 1
   94    86     6 1
   95    87     6 1
   96    88     3 1
   97    89     3 1
   98    90     1 1
   99    91     1 1
  100    92    63 1
  101    93    63 1
  102    94    63 1
  103    95    62 1
  104    96    62 1
  105    97    62 1
  106    98    60 1
  107    99    60 1
  108   100    59 1
  109   101    59 1
  110   102    58 1
  111   103    58 1
  112   104    57 1
  113   105    57 1
  114   106    57 1
  115   107    55 1
  116   108    55 1
  117   109    54 1
  118   110    54 1
  119   111    53 1
  120   112    53 1
  121   113    19 1
  122   114    18 1
  123   115    17 1
  124   116     9 1
  125   117     2 1
  126   118    52 1
  127   119    52 1
  128   120    52 1
  129   121    51 1
  130   122    50 1
  131   123    50 1
  132   124    49 1
  133   125    49 1
  134   126    48 1
  135   127    48 1
  136   128    43 1
  137   129    43 1
  138   130    43 1
  139   131    39 1
  140   132    32 1
  141   133    31 1
  142   134    61 1
  143   135    56 1
  144   136    24 1
  145   137    24 1
  146   139   138 1
  147   140   139 1
  148   141   140 1
  149   142   140 1
  150   143   142 1
  151   144   138 1
  152   144   143 1
  153   145   144 1
  154   146   145 1
  155   147   146 1
  156   148   147 1
  157   149   148 1
  158   150   149 1
  159   151   150 1
  160   152   151 1
  161   153   152 1
  162   154   138 1
  163   155   138 1
  164   156   143 1
  165   157   147 1
  166   158   151 1
  167   160   159 1
  168   161   160 1
  169   162   161 1
  170   163   161 1
  171   164   163 1
  172   165   159 1
  173   165   164 1
  174   166   165 1
  175   167   166 1
  176   168   167 1
  177   169   168 1
  178   170   169 1
  179   171   170 1
  180   172   171 1
  181   173   172 1
  182   174   153 1
  183   174   173 1
  184   175   159 1
  185   176   159 1
  186   177   164 1
  187   178   168 1
  188   179   172 1
  189   180   179 1
  190   181   179 1
  191   182   179 1
  192   183   178 1
  193   184   178 1
  194   185   178 1
  195   186   177 1
  196   187   177 1
  197   188   177 1
  198   189   176 1
  199   190   176 1
  200   191   176 1
  201   192   175 1
  202   193   175 1
  203   194   175 1
  204   195   160 1
  205   196   160 1
  206   197   158 1
  207   198   158 1
  208   199   158 1
  209   200   157 1
  210   201   157 1
  211   202   157 1
  212   203   156 1
  213   204   156 1
  214   205   156 1
  215   206   155 1
  216   207   155 1
  217   208   155 1
  218   209   154 1
  219   210   154 1
  220   211   154 1
  221   212   141 1
  222   213   146 1
  223   214   145 1
  224   215   142 1
  225   216   142 1
  226   217   174 1
  227   218   173 1
  228   219   171 1
  229   220   170 1
  230   221   169 1
  231   222   140 1
  232   223   167 1
  233   224   166 1
  234   225   165 1
  235   226   163 1
  236   227   161 1
  237   228   139 1
  238   229   139 1
  239   230   153 1
  240   231   152 1
  241   232   150 1
  242   233   149 1
  243   234   148 1
  244   235   162 1
  245   65    153 1
  246   65    174 1
@<TRIPOS>SUBSTRUCTURE
      1 CLA               1 ****               0 ****  **** 
      2 LUT             138 ****               0 ****  **** 
