@<TRIPOS>MOLECULE
Cpptraj generated mol2 file.
  235   246     2     0     0
SMALL
USER_CHARGES


@<TRIPOS>ATOM
      1 CAA        77.8271   58.6427   34.5406 a2         1 CLA     -0.055900
      2 CAB        77.7857   62.7133   43.3779 c8         1 CLA     -0.148500
      3 CAC        70.9186   57.9894   43.0277 a2         1 CLA     -0.012600
      4 CAD        73.6144   55.9638   35.6367 ck         1 CLA      0.398800
      5 NA         76.6486   59.0761   37.8607 ns         1 CLA     -0.225500
      6 CBA        79.1814   58.5795   33.8493 a2         1 CLA     -0.135000
      7 CBB        76.9446   62.9546   44.3944 c0         1 CLA     -0.395200
      8 CBC        71.2307   56.5233   43.2140 a3         1 CLA     -0.037700
      9 CBD        75.1111   56.4996   35.3892 a1         1 CLA     -0.053900
     10 NB         76.4251   60.5875   40.3682 nm         1 CLA     -0.295700
     11 OBD        72.9885   55.1309   34.9608 o2         1 CLA     -0.494600
     12 CGA        79.7111   57.1327   33.4869 c4         1 CLA      0.827000
     13 CGD        76.0034   55.3060   35.2801 c4         1 CLA      0.655300
     14 ND         73.9703   58.0023   38.5234 nm         1 CLA     -0.291600
     15 CED        77.0540   53.4797   36.3004 a3         1 CLA      0.005400
     16 CHA        75.4637   57.4838   36.5020 cs         1 CLA     -0.123800
     17 CHB        78.3803   60.3282   39.0128 aa         1 CLA     -0.291900
     18 CHC        75.2876   60.5682   42.4484 aa         1 CLA     -0.090400
     19 CHD        72.0420   57.7859   40.1118 aa         1 CLA     -0.052000
     20 CMA        79.9014   58.0070   37.5815 a3         1 CLA     -0.230700
     21 CMB        79.8717   62.2639   40.9352 a3         1 CLA     -0.180800
     22 CMC        73.0574   60.1920   44.4768 a3         1 CLA     -0.134000
     23 CMD        71.0108   55.7612   37.9520 a3         1 CLA     -0.141100
     24 C1         81.2761   55.4523   34.2024 a2         1 CLA      0.023000
     25 C1A        76.6001   58.2493   36.7830 ac         1 CLA     -0.015100
     26 C1B        77.7566   60.8759   40.1101 cr         1 CLA      0.054700
     27 C1C        74.1120   59.8633   42.1159 cn         1 CLA     -0.005600
     28 C1D        72.6908   57.4934   38.8875 ap         1 CLA     -0.047300
     29 O1A        79.1316   56.3065   32.8424 o2         1 CLA     -0.610800
     30 O1D        76.3332   54.7962   34.2131 o2         1 CLA     -0.558200
     31 C2         82.0603   55.4491   35.4893 c8         1 CLA     -0.325100
     32 C2A        77.9318   58.1787   36.0197 a1         1 CLA      0.098600
     33 C2B        78.3479   61.8624   41.0311 cb         1 CLA      0.088500
     34 C2C        73.0112   59.5990   43.0586 cb         1 CLA      0.053700
     35 C2D        72.2660   56.5634   37.8687 cb         1 CLA      0.058900
     36 O2A        80.9170   56.9018   34.1207 o1         1 CLA     -0.437200
     37 O2D        76.4599   54.8305   36.4790 o1         1 CLA     -0.357600
     38 C3         82.4737   54.4608   36.3059 c5         1 CLA      0.031200
     39 C3A        78.8852   58.9383   36.9708 a1         1 CLA      0.166800
     40 C3B        77.4621   61.9571   42.0777 cb         1 CLA      0.035000
     41 C3C        72.1050   58.7292   42.4454 cb         1 CLA     -0.089900
     42 C3D        73.2255   56.5212   36.8959 cb         1 CLA     -0.035900
     43 C4         81.5494   53.7466   37.2866 a3         1 CLA     -0.053300
     44 C4A        77.9223   59.5529   37.9687 ac         1 CLA      0.001800
     45 C4B        76.3206   61.0308   41.7187 cn         1 CLA     -0.020900
     46 C4C        72.6459   58.5487   41.0986 cr         1 CLA     -0.044400
     47 C4D        74.3014   57.4031   37.3560 c6         1 CLA     -0.046000
     48 C5         83.9110   53.9637   36.2372 a2         1 CLA     -0.070400
     49 C6         84.9544   55.0703   36.3986 a2         1 CLA      0.043900
     50 C7         84.9410   55.5561   37.8539 a2         1 CLA     -0.150000
     51 C8         85.9786   56.7236   38.1057 a1         1 CLA      0.064200
     52 C9         87.4172   56.2965   37.7108 a3         1 CLA     -0.259300
     53 C10        85.9374   57.2101   39.5901 a2         1 CLA     -0.071900
     54 C11        84.5635   57.3342   40.3293 a2         1 CLA      0.014500
     55 C12        84.5891   58.3033   41.5098 a2         1 CLA     -0.112100
     56 C13        85.3168   57.8249   42.8738 a1         1 CLA      0.089200
     57 C14        84.7337   56.5145   43.3643 a3         1 CLA     -0.239100
     58 C15        85.4797   58.8566   44.0338 a2         1 CLA     -0.102200
     59 C16        84.1609   59.5584   44.4903 a2         1 CLA      0.023900
     60 C17        84.2700   60.4165   45.7831 a2         1 CLA     -0.105700
     61 C18        83.0540   61.1198   46.3490 a1         1 CLA      0.206800
     62 C19        83.6333   61.8412   47.6393 a3         1 CLA     -0.280100
     63 C20        82.4320   62.1592   45.3842 a3         1 CLA     -0.280100
     64 NC         73.7738   59.3390   40.8967 nx         1 CLA     -0.309200
     65 MG         75.0680   59.3131   39.3972 mg         1 CLA      0.895000
     66 HMD3       70.3032   56.3697   37.5176 dc         1 CLA      0.064300
     67 HMD2       70.9895   54.8876   37.3895 dc         1 CLA      0.064300
     68 HMD1       70.8169   55.5981   38.9991 dc         1 CLA      0.064300
     69 HMC3       72.1322   60.2754   45.0246 dc         1 CLA      0.052100
     70 HMC2       73.7352   59.5380   45.0156 dc         1 CLA      0.052100
     71 HMC1       73.5569   61.1326   44.6009 dc         1 CLA      0.052100
     72 HMB3       80.4113   61.3758   41.2941 dc         1 CLA      0.063600
     73 HMB2       80.1479   62.6001   39.9302 dc         1 CLA      0.063600
     74 HMB1       80.0150   62.9142   41.7355 dc         1 CLA      0.063600
     75 HMA3       79.3931   57.0950   38.0400 dc         1 CLA      0.058300
     76 HMA2       80.6317   57.7117   36.7963 dc         1 CLA      0.058300
     77 HMA1       80.5208   58.5388   38.3002 dc         1 CLA      0.058300
     78 HED3       78.0187   53.4680   35.7181 dc         1 CLA      0.079300
     79 HED2       77.1949   53.0735   37.2532 dc         1 CLA      0.079300
     80 HED1       76.1917   52.8915   35.9417 dc         1 CLA      0.079300
     81 HBC3       72.1197   56.4832   43.7035 dc         1 CLA      0.016300
     82 HBC2       70.3800   56.1076   43.7917 dc         1 CLA      0.016300
     83 HBC1       71.3698   56.0556   42.2536 dc         1 CLA      0.016300
     84 HBB2       77.3095   63.3475   45.3403 da         1 CLA      0.183000
     85 HBB1       75.9056   62.5968   44.4237 da         1 CLA      0.183000
     86 HBA2       78.9525   59.0687   32.9049 dc         1 CLA      0.029400
     87 HBA1       79.8870   59.1972   34.3473 dc         1 CLA      0.029400
     88 HAC2       70.6297   58.4187   43.9891 dc         1 CLA      0.029300
     89 HAC1       70.1017   57.9895   42.3866 dc         1 CLA      0.029300
     90 HAA2       77.1994   57.9260   34.0306 dc         1 CLA      0.028700
     91 HAA1       77.3551   59.5942   34.4663 dc         1 CLA      0.028700
     92 H203       83.1839   62.8937   45.1565 dc         1 CLA      0.065600
     93 H202       82.2186   61.5623   44.5175 dc         1 CLA      0.065600
     94 H201       81.5685   62.5905   45.7845 dc         1 CLA      0.065600
     95 H193       84.4692   62.5931   47.3878 dc         1 CLA      0.065600
     96 H192       82.7310   62.3263   48.0857 dc         1 CLA      0.065600
     97 H191       84.0110   61.1085   48.3424 dc         1 CLA      0.065600
     98 H172       84.6949   59.8109   46.6035 dc         1 CLA      0.027600
     99 H171       84.9660   61.2229   45.5313 dc         1 CLA      0.027600
    100 H162       83.7763   60.1922   43.6573 dc         1 CLA      0.002900
    101 H161       83.3895   58.7924   44.7268 dc         1 CLA      0.002900
    102 H152       86.0194   58.3572   44.8643 dc         1 CLA      0.029100
    103 H151       86.2534   59.6501   43.8091 dc         1 CLA      0.029100
    104 H143       83.6328   56.5875   43.5096 dc         1 CLA      0.063600
    105 H142       85.0796   55.7740   42.6397 dc         1 CLA      0.063600
    106 H141       85.0980   56.3584   44.4082 dc         1 CLA      0.063600
    107 H122       85.1873   59.1936   41.2516 dc         1 CLA      0.032500
    108 H121       83.5982   58.6696   41.7422 dc         1 CLA      0.032500
    109 H112       83.8477   57.7911   39.6098 dc         1 CLA      0.006600
    110 H111       84.1562   56.3176   40.6705 dc         1 CLA      0.006600
    111 H102       86.2415   56.3777   40.2167 dc         1 CLA      0.024100
    112 H101       86.5857   58.0368   39.7554 dc         1 CLA      0.024100
    113 HHD        71.1288   57.2553   40.2875 da         1 CLA      0.174300
    114 HHC        75.3512   60.9301   43.4767 da         1 CLA      0.136800
    115 HHB        79.4511   60.6478   38.8805 da         1 CLA      0.138300
    116 HBD        75.2338   57.0670   34.4842 dc         1 CLA      0.107700
    117 HAB        78.8480   62.9814   43.5325 da         1 CLA      0.155200
    118 H93        87.7286   55.4423   38.3108 dc         1 CLA      0.069500
    119 H92        87.5171   56.1845   36.7363 dc         1 CLA      0.069500
    120 H91        88.0868   57.0921   37.8919 dc         1 CLA      0.069500
    121 H8         85.5021   57.5741   37.5283 dc         1 CLA      0.029300
    122 H72        84.0343   56.0464   38.0231 dc         1 CLA      0.044400
    123 H71        85.0716   54.7290   38.5522 dc         1 CLA      0.044400
    124 H62        85.8276   54.5621   36.1821 dc         1 CLA      0.015600
    125 H61        84.7855   55.8871   35.6819 dc         1 CLA      0.015600
    126 H52        83.9947   53.1106   36.8997 dc         1 CLA      0.033200
    127 H51        83.9636   53.4266   35.3301 dc         1 CLA      0.033200
    128 H43        81.8296   52.7211   37.3749 dc         1 CLA      0.037000
    129 H42        81.6844   54.1701   38.2770 dc         1 CLA      0.037000
    130 H41        80.5730   53.7947   36.8707 dc         1 CLA      0.037000
    131 H3A        79.3297   59.7660   36.4880 dc         1 CLA      0.041100
    132 H2A        78.2740   57.1086   35.9734 dc         1 CLA      0.083100
    133 H2         82.1758   56.4429   35.9813 da         1 CLA      0.180900
    134 H18        82.3181   60.4110   46.6314 dc         1 CLA     -0.003900
    135 H13        86.3370   57.6702   42.5840 dc         1 CLA      0.019700
    136 H12        80.4959   54.7538   34.3015 dc         1 CLA      0.120400
    137 H11        81.9054   55.1982   33.3312 dc         1 CLA      0.120400
    138 C1         67.4837   61.6196   50.8774 Z1         2 LUT      0.509236
    139 C2         66.0522   61.5812   51.4416 Z2         2 LUT     -0.434695
    140 C3         65.4091   62.8960   51.9076 Z3         2 LUT      0.437453
    141 O3         65.4947   63.2649   53.3486 S1         2 LUT     -0.547129
    142 C4         66.0336   64.0482   51.0861 Z4         2 LUT     -0.468603
    143 C5         66.7429   63.7195   49.8527 Z5         2 LUT      0.279246
    144 C6         67.4905   62.6124   49.7069 Z6         2 LUT     -0.305473
    145 C7         67.9808   62.2161   48.3755 Z7         2 LUT      0.069402
    146 C8         68.9182   62.6617   47.5712 Z8         2 LUT     -0.191631
    147 C9         69.3463   62.1807   46.2008 Z9         2 LUT      0.196698
    148 C10        70.1803   62.9599   45.3853 Y1         2 LUT     -0.208611
    149 C11        70.9054   62.6171   44.2299 Y2         2 LUT      0.030784
    150 C12        71.8393   63.5950   43.7751 Y3         2 LUT     -0.220316
    151 C13        72.6923   63.4031   42.5988 Y4         2 LUT      0.215937
    152 C14        73.8677   64.1979   42.5272 Y5         2 LUT     -0.185793
    153 C15        75.0255   64.1786   41.6596 Y6         2 LUT     -0.057835
    154 C16        68.1437   60.1664   50.5442 Y7         2 LUT     -0.405615
    155 C17        68.2101   62.0693   52.1570 Y7         2 LUT     -0.405615
    156 C18        66.3300   64.5655   48.6503 Y9         2 LUT     -0.369639
    157 C19        68.9383   60.8310   45.8453 W1         2 LUT     -0.333362
    158 C20        71.9826   62.8234   41.3547 W2         2 LUT     -0.323439
    159 C21        86.6459   65.4577   35.4055 Z1         2 LUT      0.406104
    160 C22        87.2543   65.1486   34.0128 Z2         2 LUT     -0.404965
    161 C23        86.9574   66.1354   32.9669 Z3         2 LUT      0.391255
    162 O23        87.5549   65.6196   31.7442 S1         2 LUT     -0.528210
    163 C24        85.4915   66.5832   32.9952 W6         2 LUT     -0.258361
    164 C25        84.6761   66.4669   34.0261 Z5         2 LUT      0.133546
    165 C26        85.1167   65.7405   35.3036 W8         2 LUT     -0.147008
    166 C27        84.5576   66.5025   36.5250 Z7         2 LUT      0.023843
    167 C28        83.5206   66.0505   37.2963 Z8         2 LUT     -0.216987
    168 C29        82.7163   66.6739   38.3336 Z9         2 LUT      0.206524
    169 C30        81.6677   65.8509   38.7494 Y1         2 LUT     -0.215556
    170 C31        80.5105   66.2902   39.4894 Y2         2 LUT      0.025142
    171 C32        79.3010   65.6785   39.6954 Y3         2 LUT     -0.212209
    172 C33        78.2328   65.9272   40.7073 Y4         2 LUT      0.240937
    173 C34        77.1413   65.0904   40.7662 Y5         2 LUT     -0.218862
    174 C35        76.0744   65.0359   41.6619 Y6         2 LUT     -0.023547
    175 C36        87.5668   66.6056   36.0602 Y7         2 LUT     -0.393485
    176 C37        86.9887   64.1277   36.1486 Y7         2 LUT     -0.393485
    177 C38        83.1878   66.8594   33.8936 Y9         2 LUT     -0.387526
    178 C39        82.8788   68.1724   38.6112 W1         2 LUT     -0.322618
    179 C40        78.4779   67.0186   41.7406 W2         2 LUT     -0.358472
    180 H403       79.5463   67.1138   42.1554 R7         2 LUT      0.097720
    181 H402       78.0707   68.0069   41.3361 R7         2 LUT      0.097720
    182 H401       77.9641   66.8348   42.6954 R7         2 LUT      0.097720
    183 H393       83.0794   68.3091   39.6791 R4         2 LUT      0.082505
    184 H392       83.8062   68.5068   38.1704 R4         2 LUT      0.082505
    185 H391       82.0301   68.8021   38.3091 R4         2 LUT      0.082505
    186 H383       83.0061   67.5492   33.0897 R1         2 LUT      0.104030
    187 H382       82.5018   66.0598   33.8733 R1         2 LUT      0.104030
    188 H381       82.7530   67.3956   34.7628 R1         2 LUT      0.104030
    189 H373       86.8030   64.2753   37.2455 T4         2 LUT      0.089537
    190 H372       86.4424   63.2761   35.7948 T4         2 LUT      0.089537
    191 H371       88.0210   63.8114   36.0434 T4         2 LUT      0.089537
    192 H363       88.5760   66.2835   35.9646 T4         2 LUT      0.089537
    193 H362       87.4504   67.6042   35.5790 T4         2 LUT      0.089537
    194 H361       87.4825   66.7775   37.1776 T4         2 LUT      0.089537
    195 H222       88.3489   64.9806   33.9568 U2         2 LUT      0.127376
    196 H221       86.8918   64.1552   33.7538 U2         2 LUT      0.127376
    197 H203       71.7251   61.7390   41.4695 R7         2 LUT      0.087068
    198 H202       71.0057   63.3201   41.2103 R7         2 LUT      0.087068
    199 H201       72.5037   62.9023   40.4013 R7         2 LUT      0.087068
    200 H193       68.1039   60.8605   45.1727 R4         2 LUT      0.089716
    201 H192       69.7623   60.3844   45.3204 R4         2 LUT      0.089716
    202 H191       68.7092   60.2461   46.7354 R4         2 LUT      0.089716
    203 H183       67.2306   64.9410   48.1309 R1         2 LUT      0.094572
    204 H182       65.7517   63.9368   47.8857 R1         2 LUT      0.094572
    205 H181       65.7843   65.5059   48.9009 R1         2 LUT      0.094572
    206 H173       69.2708   62.2549   51.8127 T4         2 LUT      0.093752
    207 H172       68.0176   63.0079   52.6668 T4         2 LUT      0.093752
    208 H171       68.3201   61.2838   52.9913 T4         2 LUT      0.093752
    209 H163       68.0655   59.4518   51.3554 T4         2 LUT      0.093752
    210 H162       67.5501   59.8294   49.7512 T4         2 LUT      0.093752
    211 H161       69.2063   60.2927   50.0429 T4         2 LUT      0.093752
    212 HO3        64.9190   62.6935   53.8495 Q1         2 LUT      0.300121
    213 H8         69.4796   63.5092   47.8969 U7         2 LUT      0.080784
    214 H7         67.2988   61.4354   48.0912 U6         2 LUT      0.042190
    215 H42        65.2244   64.7369   50.8466 U5         2 LUT      0.145166
    216 H41        66.6185   64.6682   51.7342 U5         2 LUT      0.145166
    217 H35        75.9530   65.7958   42.4750 T3         2 LUT      0.077919
    218 H34        77.1178   64.2298   40.1269 T2         2 LUT      0.073626
    219 H32        79.0906   64.8412   39.0171 T1         2 LUT      0.092510
    220 H31        80.7204   67.0947   40.1902 U9         2 LUT      0.070048
    221 H30        81.5449   64.8540   38.3401 U8         2 LUT      0.085442
    222 H3         64.3778   62.7951   51.5731 U3         2 LUT     -0.031596
    223 H28        83.3020   64.9832   37.1492 U7         2 LUT      0.084728
    224 H27        84.8185   67.5051   36.6042 U6         2 LUT      0.087291
    225 H26        84.4794   64.8370   35.3205 Q6         2 LUT      0.075325
    226 H24        85.1914   67.0657   32.0397 Q5         2 LUT      0.094482
    227 H23        87.4779   67.0540   33.3046 U3         2 LUT     -0.024869
    228 H22        65.4024   61.2392   50.5723 U2         2 LUT      0.127376
    229 H21        65.9889   60.7853   52.2083 U2         2 LUT      0.127376
    230 H15        74.9130   63.4551   40.8649 T3         2 LUT      0.093200
    231 H14        73.9296   64.8595   43.3967 T2         2 LUT      0.068865
    232 H12        72.0334   64.4798   44.3249 T1         2 LUT      0.095507
    233 H11        70.8565   61.6322   43.7188 U9         2 LUT      0.068930
    234 H10        70.3523   63.9954   45.6834 U8         2 LUT      0.083911
    235 H1         86.8382   65.1844   31.1800 Q1         2 LUT      0.297311
@<TRIPOS>BOND
    1     6     1 1
    2     7     2 1
    3     8     3 1
    4     9     4 1
    5    11     4 1
    6    12     6 1
    7    13     9 1
    8    16     9 1
    9    25     5 1
   10    25    16 1
   11    26    10 1
   12    26    17 1
   13    27    18 1
   14    28    14 1
   15    28    19 1
   16    29    12 1
   17    30    13 1
   18    31    24 1
   19    32     1 1
   20    32    25 1
   21    33    21 1
   22    33    26 1
   23    34    22 1
   24    34    27 1
   25    35    23 1
   26    35    28 1
   27    36    12 1
   28    36    24 1
   29    37    13 1
   30    37    15 1
   31    38    31 1
   32    39    20 1
   33    39    32 1
   34    40     2 1
   35    40    33 1
   36    41     3 1
   37    41    34 1
   38    42     4 1
   39    42    35 1
   40    43    38 1
   41    44     5 1
   42    44    17 1
   43    44    39 1
   44    45    10 1
   45    45    18 1
   46    45    40 1
   47    46    19 1
   48    46    41 1
   49    47    14 1
   50    47    16 1
   51    47    42 1
   52    48    38 1
   53    49    48 1
   54    50    49 1
   55    51    50 1
   56    52    51 1
   57    53    51 1
   58    54    53 1
   59    55    54 1
   60    56    55 1
   61    57    56 1
   62    58    56 1
   63    59    58 1
   64    60    59 1
   65    61    60 1
   66    62    61 1
   67    63    61 1
   68    64    27 1
   69    64    46 1
   70    65     5 1
   71    65    10 1
   72    65    64 1
   73    65    14 1
   74    66    23 1
   75    67    23 1
   76    68    23 1
   77    69    22 1
   78    70    22 1
   79    71    22 1
   80    72    21 1
   81    73    21 1
   82    74    21 1
   83    75    20 1
   84    76    20 1
   85    77    20 1
   86    78    15 1
   87    79    15 1
   88    80    15 1
   89    81     8 1
   90    82     8 1
   91    83     8 1
   92    84     7 1
   93    85     7 1
   94    86     6 1
   95    87     6 1
   96    88     3 1
   97    89     3 1
   98    90     1 1
   99    91     1 1
  100    92    63 1
  101    93    63 1
  102    94    63 1
  103    95    62 1
  104    96    62 1
  105    97    62 1
  106    98    60 1
  107    99    60 1
  108   100    59 1
  109   101    59 1
  110   102    58 1
  111   103    58 1
  112   104    57 1
  113   105    57 1
  114   106    57 1
  115   107    55 1
  116   108    55 1
  117   109    54 1
  118   110    54 1
  119   111    53 1
  120   112    53 1
  121   113    19 1
  122   114    18 1
  123   115    17 1
  124   116     9 1
  125   117     2 1
  126   118    52 1
  127   119    52 1
  128   120    52 1
  129   121    51 1
  130   122    50 1
  131   123    50 1
  132   124    49 1
  133   125    49 1
  134   126    48 1
  135   127    48 1
  136   128    43 1
  137   129    43 1
  138   130    43 1
  139   131    39 1
  140   132    32 1
  141   133    31 1
  142   134    61 1
  143   135    56 1
  144   136    24 1
  145   137    24 1
  146   139   138 1
  147   140   139 1
  148   141   140 1
  149   142   140 1
  150   143   142 1
  151   144   138 1
  152   144   143 1
  153   145   144 1
  154   146   145 1
  155   147   146 1
  156   148   147 1
  157   149   148 1
  158   150   149 1
  159   151   150 1
  160   152   151 1
  161   153   152 1
  162   154   138 1
  163   155   138 1
  164   156   143 1
  165   157   147 1
  166   158   151 1
  167   160   159 1
  168   161   160 1
  169   162   161 1
  170   163   161 1
  171   164   163 1
  172   165   159 1
  173   165   164 1
  174   166   165 1
  175   167   166 1
  176   168   167 1
  177   169   168 1
  178   170   169 1
  179   171   170 1
  180   172   171 1
  181   173   172 1
  182   174   153 1
  183   174   173 1
  184   175   159 1
  185   176   159 1
  186   177   164 1
  187   178   168 1
  188   179   172 1
  189   180   179 1
  190   181   179 1
  191   182   179 1
  192   183   178 1
  193   184   178 1
  194   185   178 1
  195   186   177 1
  196   187   177 1
  197   188   177 1
  198   189   176 1
  199   190   176 1
  200   191   176 1
  201   192   175 1
  202   193   175 1
  203   194   175 1
  204   195   160 1
  205   196   160 1
  206   197   158 1
  207   198   158 1
  208   199   158 1
  209   200   157 1
  210   201   157 1
  211   202   157 1
  212   203   156 1
  213   204   156 1
  214   205   156 1
  215   206   155 1
  216   207   155 1
  217   208   155 1
  218   209   154 1
  219   210   154 1
  220   211   154 1
  221   212   141 1
  222   213   146 1
  223   214   145 1
  224   215   142 1
  225   216   142 1
  226   217   174 1
  227   218   173 1
  228   219   171 1
  229   220   170 1
  230   221   169 1
  231   222   140 1
  232   223   167 1
  233   224   166 1
  234   225   165 1
  235   226   163 1
  236   227   161 1
  237   228   139 1
  238   229   139 1
  239   230   153 1
  240   231   152 1
  241   232   150 1
  242   233   149 1
  243   234   148 1
  244   235   162 1
  245   65    153 1
  246   65    174 1
@<TRIPOS>SUBSTRUCTURE
      1 CLA               1 ****               0 ****  **** 
      2 LUT             138 ****               0 ****  **** 
