@<TRIPOS>MOLECULE
Cpptraj generated mol2 file.
  235   246     2     0     0
SMALL
USER_CHARGES


@<TRIPOS>ATOM
      1 CAA        78.1717   58.5069   33.2305 a2         1 CLA     -0.055900
      2 CAB        78.5408   61.8653   42.3963 c8         1 CLA     -0.148500
      3 CAC        71.3426   57.7659   41.6214 a2         1 CLA     -0.012600
      4 CAD        74.4254   55.6397   34.4850 ck         1 CLA      0.398800
      5 NA         77.4321   58.7693   36.6911 ns         1 CLA     -0.225500
      6 CBA        79.2639   58.3164   32.2603 a2         1 CLA     -0.135000
      7 CBB        78.1052   61.3459   43.6074 c0         1 CLA     -0.395200
      8 CBC        71.4637   56.3559   42.1836 a3         1 CLA     -0.037700
      9 CBD        75.9365   56.1023   34.2226 a1         1 CLA     -0.053900
     10 NB         77.2664   60.0256   39.4193 nm         1 CLA     -0.295700
     11 OBD        73.8631   54.8513   33.6814 o2         1 CLA     -0.494600
     12 CGA        79.8163   56.9261   32.0266 c4         1 CLA      0.827000
     13 CGD        76.8255   54.9507   34.2981 c4         1 CLA      0.655300
     14 ND         74.6702   57.7414   37.1905 nm         1 CLA     -0.291600
     15 CED        76.8894   52.6474   34.9593 a3         1 CLA      0.005400
     16 CHA        76.1716   57.1599   35.3343 cs         1 CLA     -0.123800
     17 CHB        79.2095   60.0006   37.7586 aa         1 CLA     -0.291900
     18 CHC        75.9470   60.2675   41.3882 aa         1 CLA     -0.090400
     19 CHD        72.7853   57.5314   38.6562 aa         1 CLA     -0.052000
     20 CMA        80.7664   58.1391   35.8406 a3         1 CLA     -0.230700
     21 CMB        80.5762   61.7250   39.9644 a3         1 CLA     -0.180800
     22 CMC        73.6416   59.5518   43.3857 a3         1 CLA     -0.134000
     23 CMD        71.6689   55.6734   36.4220 a3         1 CLA     -0.141100
     24 C1         81.4373   55.2704   32.8257 a2         1 CLA      0.023000
     25 C1A        77.2692   57.9841   35.6008 ac         1 CLA     -0.015100
     26 C1B        78.5796   60.3445   39.0573 cr         1 CLA      0.054700
     27 C1C        74.7686   59.4959   41.0322 cn         1 CLA     -0.005600
     28 C1D        73.4087   57.2689   37.4511 ap         1 CLA     -0.047300
     29 O1A        79.7131   56.3046   30.9774 o2         1 CLA     -0.610800
     30 O1D        77.7866   54.8027   33.5283 o2         1 CLA     -0.558200
     31 C2         82.1625   55.0468   34.1629 c8         1 CLA     -0.325100
     32 C2A        78.4280   58.0513   34.6434 a1         1 CLA      0.098600
     33 C2B        79.1948   61.0826   40.0908 cb         1 CLA      0.088500
     34 C2C        73.6430   59.2336   41.9198 cb         1 CLA      0.053700
     35 C2D        72.9081   56.4934   36.4525 cb         1 CLA      0.058900
     36 O2A        80.6580   56.5197   32.9954 o1         1 CLA     -0.437200
     37 O2D        76.4031   53.9829   35.2195 o1         1 CLA     -0.357600
     38 C3         82.1300   53.9488   34.9245 c5         1 CLA      0.031200
     39 C3A        79.4480   58.8673   35.4376 a1         1 CLA      0.166800
     40 C3B        78.2838   61.1769   41.0895 cb         1 CLA      0.035000
     41 C3C        72.7070   58.4267   41.1874 cb         1 CLA     -0.089900
     42 C3D        73.9559   56.3501   35.6094 cb         1 CLA     -0.035900
     43 C4         81.1022   53.7223   36.0116 a3         1 CLA     -0.053300
     44 C4A        78.6609   59.3266   36.6768 ac         1 CLA      0.001800
     45 C4B        77.0620   60.4772   40.6184 cn         1 CLA     -0.020900
     46 C4C        73.3202   58.2350   39.8256 cr         1 CLA     -0.044400
     47 C4D        75.0373   57.1348   36.1025 c6         1 CLA     -0.046000
     48 C5         83.2455   52.9530   34.7524 a2         1 CLA     -0.070400
     49 C6         84.6000   53.5027   35.1941 a2         1 CLA      0.043900
     50 C7         84.7224   53.7226   36.6957 a2         1 CLA     -0.150000
     51 C8         85.4123   55.0148   37.0428 a1         1 CLA      0.064200
     52 C9         86.9629   55.0175   36.7551 a3         1 CLA     -0.259300
     53 C10        85.1837   55.3827   38.5189 a2         1 CLA     -0.071900
     54 C11        83.7739   55.9882   38.7736 a2         1 CLA      0.014500
     55 C12        83.6456   56.6276   40.1308 a2         1 CLA     -0.112100
     56 C13        82.1407   56.9432   40.6013 a1         1 CLA      0.089200
     57 C14        81.4595   58.0392   39.7540 a3         1 CLA     -0.239100
     58 C15        82.0721   57.3640   42.1053 a2         1 CLA     -0.102200
     59 C16        82.8239   58.7146   42.4642 a2         1 CLA      0.023900
     60 C17        82.7421   58.9169   44.0308 a2         1 CLA     -0.105700
     61 C18        82.8934   60.4619   44.5553 a1         1 CLA      0.206800
     62 C19        81.5885   61.2252   44.1817 a3         1 CLA     -0.280100
     63 C20        83.0511   60.4049   46.1148 a3         1 CLA     -0.280100
     64 NC         74.5930   58.8691   39.8120 nx         1 CLA     -0.309200
     65 MG         76.0072   58.9289   38.2043 mg         1 CLA      0.895000
     66 HMD3       71.5540   55.1301   37.3827 dc         1 CLA      0.064300
     67 HMD2       70.7082   56.2001   36.2526 dc         1 CLA      0.064300
     68 HMD1       71.6851   54.9566   35.6380 dc         1 CLA      0.064300
     69 HMC3       73.1363   60.4863   43.5908 dc         1 CLA      0.052100
     70 HMC2       73.0182   58.8225   43.8670 dc         1 CLA      0.052100
     71 HMC1       74.6406   59.5478   43.7593 dc         1 CLA      0.052100
     72 HMB3       80.9169   62.4126   40.7673 dc         1 CLA      0.063600
     73 HMB2       81.3444   60.9045   39.9268 dc         1 CLA      0.063600
     74 HMB1       80.6511   62.2210   38.9551 dc         1 CLA      0.063600
     75 HMA3       80.6075   57.2240   36.3455 dc         1 CLA      0.058300
     76 HMA2       81.4794   58.0358   35.0291 dc         1 CLA      0.058300
     77 HMA1       81.3096   58.7120   36.5415 dc         1 CLA      0.058300
     78 HED3       76.3900   52.0169   35.6726 dc         1 CLA      0.079300
     79 HED2       76.6537   52.2867   33.9767 dc         1 CLA      0.079300
     80 HED1       77.9235   52.6192   35.0568 dc         1 CLA      0.079300
     81 HBC3       71.8834   55.7789   41.3631 dc         1 CLA      0.016300
     82 HBC2       72.1899   56.2986   43.0079 dc         1 CLA      0.016300
     83 HBC1       70.5162   55.9610   42.4568 dc         1 CLA      0.016300
     84 HBB2       78.2833   61.9263   44.5380 da         1 CLA      0.183000
     85 HBB1       77.6686   60.3602   43.7914 da         1 CLA      0.183000
     86 HBA2       78.8107   58.7644   31.3645 dc         1 CLA      0.029400
     87 HBA1       80.1036   58.9574   32.5103 dc         1 CLA      0.029400
     88 HAC2       70.9895   58.4152   42.4416 dc         1 CLA      0.029300
     89 HAC1       70.5006   57.8686   40.8692 dc         1 CLA      0.029300
     90 HAA2       77.2848   57.9823   32.8975 dc         1 CLA      0.028700
     91 HAA1       77.9094   59.5440   33.2333 dc         1 CLA      0.028700
     92 H203       84.1044   60.1380   46.3265 dc         1 CLA      0.065600
     93 H202       82.7397   61.3816   46.5130 dc         1 CLA      0.065600
     94 H201       82.3393   59.6691   46.5396 dc         1 CLA      0.065600
     95 H193       80.7932   60.7306   44.6630 dc         1 CLA      0.065600
     96 H192       81.6900   62.2956   44.5223 dc         1 CLA      0.065600
     97 H191       81.4274   61.2182   43.1615 dc         1 CLA      0.065600
     98 H172       81.8633   58.4060   44.4347 dc         1 CLA      0.027600
     99 H171       83.6497   58.3874   44.4424 dc         1 CLA      0.027600
    100 H162       83.8699   58.6556   42.1144 dc         1 CLA      0.002900
    101 H161       82.2600   59.6044   41.9870 dc         1 CLA      0.002900
    102 H152       80.9924   57.4767   42.2006 dc         1 CLA      0.029100
    103 H151       82.2831   56.5702   42.8465 dc         1 CLA      0.029100
    104 H143       81.9673   58.9727   39.8097 dc         1 CLA      0.063600
    105 H142       81.4304   57.5533   38.8083 dc         1 CLA      0.063600
    106 H141       80.4317   58.1427   40.1109 dc         1 CLA      0.063600
    107 H122       84.1333   56.0035   40.8858 dc         1 CLA      0.032500
    108 H121       84.1664   57.5745   40.1368 dc         1 CLA      0.032500
    109 H112       83.4434   56.7976   38.1354 dc         1 CLA      0.006600
    110 H111       83.0719   55.1138   38.8437 dc         1 CLA      0.006600
    111 H102       85.4045   54.5808   39.1896 dc         1 CLA      0.024100
    112 H101       85.9234   56.1581   38.6712 dc         1 CLA      0.024100
    113 HHD        71.7937   57.2372   38.8728 da         1 CLA      0.174300
    114 HHC        75.9775   60.7195   42.4440 da         1 CLA      0.136800
    115 HHB        80.2471   60.2725   37.6855 da         1 CLA      0.138300
    116 HBD        75.9054   56.5283   33.2223 dc         1 CLA      0.107700
    117 HAB        79.0638   62.8086   42.3984 da         1 CLA      0.155200
    118 H93        87.0751   54.9968   35.6712 dc         1 CLA      0.069500
    119 H92        87.4372   55.9938   37.0507 dc         1 CLA      0.069500
    120 H91        87.4890   54.1893   37.2224 dc         1 CLA      0.069500
    121 H8         84.8736   55.7755   36.5108 dc         1 CLA      0.029300
    122 H72        83.6771   53.6494   37.0166 dc         1 CLA      0.044400
    123 H71        85.2967   52.8886   37.1678 dc         1 CLA      0.044400
    124 H62        85.4164   52.7840   34.8884 dc         1 CLA      0.015600
    125 H61        84.7485   54.4858   34.6076 dc         1 CLA      0.015600
    126 H52        83.0556   51.9776   35.2042 dc         1 CLA      0.033200
    127 H51        83.3362   52.5574   33.7958 dc         1 CLA      0.033200
    128 H43        80.4115   52.9379   35.6556 dc         1 CLA      0.037000
    129 H42        81.6142   53.2776   36.8296 dc         1 CLA      0.037000
    130 H41        80.5221   54.6833   36.2323 dc         1 CLA      0.037000
    131 H3A        79.6759   59.7070   34.7650 dc         1 CLA      0.041100
    132 H2A        78.8035   56.9886   34.6050 dc         1 CLA      0.083100
    133 H2         82.5985   55.8960   34.6736 da         1 CLA      0.180900
    134 H18        83.7510   60.8886   44.1460 dc         1 CLA     -0.003900
    135 H13        81.5990   55.9811   40.5744 dc         1 CLA      0.019700
    136 H12        80.7377   54.4311   32.7349 dc         1 CLA      0.120400
    137 H11        82.1154   55.3060   31.9834 dc         1 CLA      0.120400
    138 C1         67.9232   61.1346   49.4269 Z1         2 LUT      0.509236
    139 C2         66.5936   61.0745   50.2351 Z2         2 LUT     -0.434695
    140 C3         66.0037   62.5195   50.6266 Z3         2 LUT      0.437453
    141 O3         66.5443   62.9124   51.8896 S1         2 LUT     -0.547129
    142 C4         66.3739   63.6090   49.5454 Z4         2 LUT     -0.468603
    143 C5         67.0555   63.1166   48.2486 Z5         2 LUT      0.279246
    144 C6         67.8983   62.0745   48.1652 Z6         2 LUT     -0.305473
    145 C7         68.2331   61.5318   46.8295 Z7         2 LUT      0.069402
    146 C8         69.1025   62.1715   46.0414 Z8         2 LUT     -0.191631
    147 C9         69.6121   61.7472   44.7958 Z9         2 LUT      0.196698
    148 C10        70.6166   62.4786   44.2496 Y1         2 LUT     -0.208611
    149 C11        71.3448   62.3233   43.0140 Y2         2 LUT      0.030784
    150 C12        72.4445   63.1081   42.6926 Y3         2 LUT     -0.220316
    151 C13        73.4096   62.9559   41.6251 Y4         2 LUT      0.215937
    152 C14        74.6113   63.5864   41.6718 Y5         2 LUT     -0.185793
    153 C15        75.7073   63.6289   40.6818 Y6         2 LUT     -0.057835
    154 C16        68.3085   59.6963   49.0758 Y7         2 LUT     -0.405615
    155 C17        69.0335   61.5949   50.3822 Y7         2 LUT     -0.405615
    156 C18        66.3825   63.7996   47.0999 Y9         2 LUT     -0.369639
    157 C19        69.0803   60.4766   44.1848 W1         2 LUT     -0.333362
    158 C20        72.9754   62.2878   40.3692 W2         2 LUT     -0.323439
    159 C21        87.5546   65.0633   34.9526 Z1         2 LUT      0.406104
    160 C22        88.2642   64.4621   33.7319 Z2         2 LUT     -0.404965
    161 C23        88.4797   65.4260   32.5676 Z3         2 LUT      0.391255
    162 O23        89.1335   64.7208   31.5237 S1         2 LUT     -0.528210
    163 C24        87.2281   66.2441   32.3073 W6         2 LUT     -0.258361
    164 C25        86.1904   66.3128   33.1163 Z5         2 LUT      0.133546
    165 C26        86.0985   65.6540   34.5189 W8         2 LUT     -0.147008
    166 C27        85.2616   66.3634   35.5966 Z7         2 LUT      0.023843
    167 C28        83.9394   66.0392   35.8006 Z8         2 LUT     -0.216987
    168 C29        83.1598   66.2777   37.0159 Z9         2 LUT      0.206524
    169 C30        81.9779   65.6287   37.4029 Y1         2 LUT     -0.215556
    170 C31        81.2219   65.7568   38.5645 Y2         2 LUT      0.025142
    171 C32        80.0277   65.1736   38.7825 Y3         2 LUT     -0.212209
    172 C33        79.0905   65.3562   39.8594 Y4         2 LUT      0.240937
    173 C34        77.9144   64.6904   39.8759 Y5         2 LUT     -0.218862
    174 C35        76.7938   64.5065   40.8278 Y6         2 LUT     -0.023547
    175 C36        88.4124   66.2218   35.4627 Y7         2 LUT     -0.393485
    176 C37        87.4617   63.8900   36.0222 Y7         2 LUT     -0.393485
    177 C38        85.0230   67.0463   32.6025 Y9         2 LUT     -0.387526
    178 C39        83.4693   67.4570   37.8562 W1         2 LUT     -0.322618
    179 C40        79.3803   66.2598   41.0130 W2         2 LUT     -0.358472
    180 H403       79.0406   67.2585   40.9463 R7         2 LUT      0.097720
    181 H402       78.9535   65.7950   41.9502 R7         2 LUT      0.097720
    182 H401       80.4562   66.3912   41.1884 R7         2 LUT      0.097720
    183 H393       82.6221   68.1577   37.8219 R4         2 LUT      0.082505
    184 H392       83.7530   67.1699   38.8807 R4         2 LUT      0.082505
    185 H391       84.2770   68.0842   37.5218 R4         2 LUT      0.082505
    186 H383       85.0200   67.9151   33.2369 R1         2 LUT      0.104030
    187 H382       85.1740   67.4647   31.5728 R1         2 LUT      0.104030
    188 H381       84.1008   66.4308   32.5363 R1         2 LUT      0.104030
    189 H373       86.9466   64.1047   36.9636 T4         2 LUT      0.089537
    190 H372       86.9710   63.0490   35.6206 T4         2 LUT      0.089537
    191 H371       88.4703   63.5045   36.3430 T4         2 LUT      0.089537
    192 H363       87.9055   66.6525   36.3209 T4         2 LUT      0.089537
    193 H362       89.4129   65.7087   35.7755 T4         2 LUT      0.089537
    194 H361       88.6337   67.0235   34.7560 T4         2 LUT      0.089537
    195 H222       89.2469   64.1345   34.0882 U2         2 LUT      0.127376
    196 H221       87.7997   63.4937   33.4791 U2         2 LUT      0.127376
    197 H203       73.7717   62.0333   39.6427 R7         2 LUT      0.087068
    198 H202       72.4368   61.3912   40.5295 R7         2 LUT      0.087068
    199 H201       72.2689   62.8448   39.8017 R7         2 LUT      0.087068
    200 H193       69.7652   59.9859   43.5016 R4         2 LUT      0.089716
    201 H192       69.1712   59.7122   45.0427 R4         2 LUT      0.089716
    202 H191       68.0853   60.4776   43.7256 R4         2 LUT      0.089716
    203 H183       67.0547   64.4934   46.5890 R1         2 LUT      0.094572
    204 H182       66.1620   63.0610   46.4016 R1         2 LUT      0.094572
    205 H181       65.4127   64.3439   47.3021 R1         2 LUT      0.094572
    206 H173       68.7790   62.6437   50.7401 T4         2 LUT      0.093752
    207 H172       69.0411   60.9727   51.3031 T4         2 LUT      0.093752
    208 H171       70.0269   61.6537   49.9982 T4         2 LUT      0.093752
    209 H163       69.2071   59.7225   48.4961 T4         2 LUT      0.093752
    210 H162       68.4747   59.0057   49.8911 T4         2 LUT      0.093752
    211 H161       67.4783   59.2609   48.5118 T4         2 LUT      0.093752
    212 HO3        65.9677   62.5494   52.5674 Q1         2 LUT      0.300121
    213 H8         69.4247   63.1718   46.3747 U7         2 LUT      0.080784
    214 H7         67.8579   60.5668   46.4643 U6         2 LUT      0.042190
    215 H42        65.4852   64.2315   49.2570 U5         2 LUT      0.145166
    216 H41        67.1460   64.2935   49.9694 U5         2 LUT      0.145166
    217 H35        76.8360   64.9629   41.7833 T3         2 LUT      0.077919
    218 H34        77.5707   64.1528   39.0418 T2         2 LUT      0.073626
    219 H32        79.8319   64.4914   37.9396 T1         2 LUT      0.092510
    220 H31        81.6011   66.3642   39.3125 U9         2 LUT      0.070048
    221 H30        81.6006   64.8978   36.7729 U8         2 LUT      0.085442
    222 H3         64.8969   62.6434   50.4988 U3         2 LUT     -0.031596
    223 H28        83.5389   65.3554   35.0665 U7         2 LUT      0.084728
    224 H27        85.7617   66.8822   36.4988 U6         2 LUT      0.087291
    225 H26        85.4981   64.7678   34.3198 Q6         2 LUT      0.075325
    226 H24        87.1036   66.6880   31.2840 Q5         2 LUT      0.094482
    227 H23        89.1729   66.2338   32.9416 U3         2 LUT     -0.024869
    228 H22        65.8528   60.6390   49.5348 U2         2 LUT      0.127376
    229 H21        66.6462   60.5800   51.1714 U2         2 LUT      0.127376
    230 H15        75.5257   63.2149   39.7337 T3         2 LUT      0.093200
    231 H14        74.6621   64.3143   42.4276 T2         2 LUT      0.068865
    232 H12        72.6236   63.9020   43.5122 T1         2 LUT      0.095507
    233 H11        70.9999   61.5002   42.4305 U9         2 LUT      0.068930
    234 H10        70.7872   63.4434   44.7926 U8         2 LUT      0.083911
    235 H1         88.5219   64.3197   30.9035 Q1         2 LUT      0.297311
@<TRIPOS>BOND
    1     6     1 1
    2     7     2 1
    3     8     3 1
    4     9     4 1
    5    11     4 1
    6    12     6 1
    7    13     9 1
    8    16     9 1
    9    25     5 1
   10    25    16 1
   11    26    10 1
   12    26    17 1
   13    27    18 1
   14    28    14 1
   15    28    19 1
   16    29    12 1
   17    30    13 1
   18    31    24 1
   19    32     1 1
   20    32    25 1
   21    33    21 1
   22    33    26 1
   23    34    22 1
   24    34    27 1
   25    35    23 1
   26    35    28 1
   27    36    12 1
   28    36    24 1
   29    37    13 1
   30    37    15 1
   31    38    31 1
   32    39    20 1
   33    39    32 1
   34    40     2 1
   35    40    33 1
   36    41     3 1
   37    41    34 1
   38    42     4 1
   39    42    35 1
   40    43    38 1
   41    44     5 1
   42    44    17 1
   43    44    39 1
   44    45    10 1
   45    45    18 1
   46    45    40 1
   47    46    19 1
   48    46    41 1
   49    47    14 1
   50    47    16 1
   51    47    42 1
   52    48    38 1
   53    49    48 1
   54    50    49 1
   55    51    50 1
   56    52    51 1
   57    53    51 1
   58    54    53 1
   59    55    54 1
   60    56    55 1
   61    57    56 1
   62    58    56 1
   63    59    58 1
   64    60    59 1
   65    61    60 1
   66    62    61 1
   67    63    61 1
   68    64    27 1
   69    64    46 1
   70    65     5 1
   71    65    10 1
   72    65    64 1
   73    65    14 1
   74    66    23 1
   75    67    23 1
   76    68    23 1
   77    69    22 1
   78    70    22 1
   79    71    22 1
   80    72    21 1
   81    73    21 1
   82    74    21 1
   83    75    20 1
   84    76    20 1
   85    77    20 1
   86    78    15 1
   87    79    15 1
   88    80    15 1
   89    81     8 1
   90    82     8 1
   91    83     8 1
   92    84     7 1
   93    85     7 1
   94    86     6 1
   95    87     6 1
   96    88     3 1
   97    89     3 1
   98    90     1 1
   99    91     1 1
  100    92    63 1
  101    93    63 1
  102    94    63 1
  103    95    62 1
  104    96    62 1
  105    97    62 1
  106    98    60 1
  107    99    60 1
  108   100    59 1
  109   101    59 1
  110   102    58 1
  111   103    58 1
  112   104    57 1
  113   105    57 1
  114   106    57 1
  115   107    55 1
  116   108    55 1
  117   109    54 1
  118   110    54 1
  119   111    53 1
  120   112    53 1
  121   113    19 1
  122   114    18 1
  123   115    17 1
  124   116     9 1
  125   117     2 1
  126   118    52 1
  127   119    52 1
  128   120    52 1
  129   121    51 1
  130   122    50 1
  131   123    50 1
  132   124    49 1
  133   125    49 1
  134   126    48 1
  135   127    48 1
  136   128    43 1
  137   129    43 1
  138   130    43 1
  139   131    39 1
  140   132    32 1
  141   133    31 1
  142   134    61 1
  143   135    56 1
  144   136    24 1
  145   137    24 1
  146   139   138 1
  147   140   139 1
  148   141   140 1
  149   142   140 1
  150   143   142 1
  151   144   138 1
  152   144   143 1
  153   145   144 1
  154   146   145 1
  155   147   146 1
  156   148   147 1
  157   149   148 1
  158   150   149 1
  159   151   150 1
  160   152   151 1
  161   153   152 1
  162   154   138 1
  163   155   138 1
  164   156   143 1
  165   157   147 1
  166   158   151 1
  167   160   159 1
  168   161   160 1
  169   162   161 1
  170   163   161 1
  171   164   163 1
  172   165   159 1
  173   165   164 1
  174   166   165 1
  175   167   166 1
  176   168   167 1
  177   169   168 1
  178   170   169 1
  179   171   170 1
  180   172   171 1
  181   173   172 1
  182   174   153 1
  183   174   173 1
  184   175   159 1
  185   176   159 1
  186   177   164 1
  187   178   168 1
  188   179   172 1
  189   180   179 1
  190   181   179 1
  191   182   179 1
  192   183   178 1
  193   184   178 1
  194   185   178 1
  195   186   177 1
  196   187   177 1
  197   188   177 1
  198   189   176 1
  199   190   176 1
  200   191   176 1
  201   192   175 1
  202   193   175 1
  203   194   175 1
  204   195   160 1
  205   196   160 1
  206   197   158 1
  207   198   158 1
  208   199   158 1
  209   200   157 1
  210   201   157 1
  211   202   157 1
  212   203   156 1
  213   204   156 1
  214   205   156 1
  215   206   155 1
  216   207   155 1
  217   208   155 1
  218   209   154 1
  219   210   154 1
  220   211   154 1
  221   212   141 1
  222   213   146 1
  223   214   145 1
  224   215   142 1
  225   216   142 1
  226   217   174 1
  227   218   173 1
  228   219   171 1
  229   220   170 1
  230   221   169 1
  231   222   140 1
  232   223   167 1
  233   224   166 1
  234   225   165 1
  235   226   163 1
  236   227   161 1
  237   228   139 1
  238   229   139 1
  239   230   153 1
  240   231   152 1
  241   232   150 1
  242   233   149 1
  243   234   148 1
  244   235   162 1
  245   65    153 1
  246   65    174 1
@<TRIPOS>SUBSTRUCTURE
      1 CLA               1 ****               0 ****  **** 
      2 LUT             138 ****               0 ****  **** 
