@<TRIPOS>MOLECULE
Cpptraj generated mol2 file.
  235   246     2     0     0
SMALL
USER_CHARGES


@<TRIPOS>ATOM
      1 CAA        78.0481   58.2171   35.4481 a2         1 CLA     -0.055900
      2 CAB        77.5014   62.1511   44.0915 c8         1 CLA     -0.148500
      3 CAC        70.8742   57.7144   43.4594 a2         1 CLA     -0.012600
      4 CAD        73.8824   55.3560   36.4344 ck         1 CLA      0.398800
      5 NA         76.7810   58.6142   38.6445 ns         1 CLA     -0.225500
      6 CBA        79.3366   58.0111   34.5387 a2         1 CLA     -0.135000
      7 CBB        77.1145   61.6837   45.2831 c0         1 CLA     -0.395200
      8 CBC        71.1773   56.1793   43.4372 a3         1 CLA     -0.037700
      9 CBD        75.2740   56.0561   36.1678 a1         1 CLA     -0.053900
     10 NB         76.5548   60.1247   41.0583 nm         1 CLA     -0.295700
     11 OBD        73.3717   54.4659   35.7258 o2         1 CLA     -0.494600
     12 CGA        79.8821   56.6648   34.1329 c4         1 CLA      0.827000
     13 CGD        76.3258   54.9312   36.0017 c4         1 CLA      0.655300
     14 ND         73.9315   57.7077   39.0385 nm         1 CLA     -0.291600
     15 CED        77.8333   53.3802   37.2666 a3         1 CLA      0.005400
     16 CHA        75.5569   57.0038   37.2743 cs         1 CLA     -0.123800
     17 CHB        78.5066   60.0146   39.6749 aa         1 CLA     -0.291900
     18 CHC        74.9750   60.4851   42.9545 aa         1 CLA     -0.090400
     19 CHD        71.9640   57.6932   40.4800 aa         1 CLA     -0.052000
     20 CMA        80.2963   57.7978   38.3343 a3         1 CLA     -0.230700
     21 CMB        79.8890   61.8180   41.8556 a3         1 CLA     -0.180800
     22 CMC        72.5992   59.8000   45.0037 a3         1 CLA     -0.134000
     23 CMD        71.0576   55.5175   38.4484 a3         1 CLA     -0.141100
     24 C1         80.9941   54.7569   35.0247 a2         1 CLA      0.023000
     25 C1A        76.7345   57.7195   37.6112 ac         1 CLA     -0.015100
     26 C1B        77.8595   60.5025   40.7730 cr         1 CLA      0.054700
     27 C1C        73.8248   59.7779   42.6614 cn         1 CLA     -0.005600
     28 C1D        72.6489   57.3101   39.3075 ap         1 CLA     -0.047300
     29 O1A        79.7813   56.0602   33.0346 o2         1 CLA     -0.610800
     30 O1D        76.9002   54.7267   34.9395 o2         1 CLA     -0.558200
     31 C2         81.5623   54.2780   36.3577 c8         1 CLA     -0.325100
     32 C2A        78.1082   57.6518   36.8835 a1         1 CLA      0.098600
     33 C2B        78.4475   61.3258   41.8152 cb         1 CLA      0.088500
     34 C2C        72.7181   59.4669   43.5070 cb         1 CLA      0.053700
     35 C2D        72.2323   56.2959   38.3873 cb         1 CLA      0.058900
     36 O2A        80.4593   56.0662   35.2352 o1         1 CLA     -0.437200
     37 O2D        76.5902   54.1946   37.2023 o1         1 CLA     -0.357600
     38 C3         82.3539   53.2378   36.6147 c5         1 CLA      0.031200
     39 C3A        79.0230   58.4868   37.7932 a1         1 CLA      0.166800
     40 C3B        77.4236   61.4265   42.7662 cb         1 CLA      0.035000
     41 C3C        71.9307   58.5355   42.8381 cb         1 CLA     -0.089900
     42 C3D        73.3716   56.1575   37.5692 cb         1 CLA     -0.035900
     43 C4         81.8315   51.8641   37.0739 a3         1 CLA     -0.053300
     44 C4A        78.0476   59.1036   38.7659 ac         1 CLA      0.001800
     45 C4B        76.2679   60.6473   42.2781 cn         1 CLA     -0.020900
     46 C4C        72.4542   58.5309   41.4983 cr         1 CLA     -0.044400
     47 C4D        74.3267   57.0604   37.9836 c6         1 CLA     -0.046000
     48 C5         83.8221   53.3815   36.3278 a2         1 CLA     -0.070400
     49 C6         84.5319   54.7133   36.7619 a2         1 CLA      0.043900
     50 C7         84.4050   55.1051   38.2430 a2         1 CLA     -0.150000
     51 C8         85.2075   56.3888   38.6947 a1         1 CLA      0.064200
     52 C9         86.6634   56.3774   38.3773 a3         1 CLA     -0.259300
     53 C10        84.9434   56.8907   40.2388 a2         1 CLA     -0.071900
     54 C11        83.4179   57.1161   40.6397 a2         1 CLA      0.014500
     55 C12        83.3473   58.1268   41.8636 a2         1 CLA     -0.112100
     56 C13        84.2526   58.0391   43.1110 a1         1 CLA      0.089200
     57 C14        84.0666   56.6165   43.7238 a3         1 CLA     -0.239100
     58 C15        84.1841   59.2060   44.0782 a2         1 CLA     -0.102200
     59 C16        82.8117   59.5087   44.8083 a2         1 CLA      0.023900
     60 C17        82.9624   60.5818   45.9154 a2         1 CLA     -0.105700
     61 C18        81.7075   60.9334   46.7916 a1         1 CLA      0.206800
     62 C19        82.2008   61.7631   48.0299 a3         1 CLA     -0.280100
     63 C20        80.6669   61.6143   45.8575 a3         1 CLA     -0.280100
     64 NC         73.6237   59.1691   41.4532 nx         1 CLA     -0.309200
     65 MG         75.1399   59.0049   39.9549 mg         1 CLA      0.895000
     66 HMD3       70.1558   56.0520   38.0853 dc         1 CLA      0.064300
     67 HMD2       71.1160   54.6425   37.7736 dc         1 CLA      0.064300
     68 HMD1       70.9312   55.2849   39.4923 dc         1 CLA      0.064300
     69 HMC3       73.0573   60.7781   45.1574 dc         1 CLA      0.052100
     70 HMC2       71.5849   59.8192   45.2995 dc         1 CLA      0.052100
     71 HMC1       73.2257   59.0736   45.6074 dc         1 CLA      0.052100
     72 HMB3       80.2801   61.8959   42.9059 dc         1 CLA      0.063600
     73 HMB2       80.5463   61.1595   41.3616 dc         1 CLA      0.063600
     74 HMB1       79.9964   62.6742   41.2256 dc         1 CLA      0.063600
     75 HMA3       80.1075   56.7535   38.7316 dc         1 CLA      0.058300
     76 HMA2       81.0404   57.5122   37.5536 dc         1 CLA      0.058300
     77 HMA1       80.8042   58.4129   39.0191 dc         1 CLA      0.058300
     78 HED3       78.0177   52.7963   36.4270 dc         1 CLA      0.079300
     79 HED2       78.5982   54.0590   37.5764 dc         1 CLA      0.079300
     80 HED1       77.7225   52.6543   38.0858 dc         1 CLA      0.079300
     81 HBC3       70.3251   55.6865   43.9122 dc         1 CLA      0.016300
     82 HBC2       71.3031   55.8253   42.4057 dc         1 CLA      0.016300
     83 HBC1       72.0311   56.0494   44.0843 dc         1 CLA      0.016300
     84 HBB2       77.2874   62.1986   46.2072 da         1 CLA      0.183000
     85 HBB1       76.5408   60.7523   45.3779 da         1 CLA      0.183000
     86 HBA2       79.0511   58.4410   33.6103 dc         1 CLA      0.029400
     87 HBA1       80.2304   58.5073   34.9591 dc         1 CLA      0.029400
     88 HAC2       70.7358   58.1016   44.4809 dc         1 CLA      0.029300
     89 HAC1       69.8914   57.8220   42.8438 dc         1 CLA      0.029300
     90 HAA2       77.1565   57.7708   34.9636 dc         1 CLA      0.028700
     91 HAA1       77.7478   59.2330   35.5164 dc         1 CLA      0.028700
     92 H203       81.2186   62.4261   45.3342 dc         1 CLA      0.065600
     93 H202       80.3084   61.0298   45.0841 dc         1 CLA      0.065600
     94 H201       79.8224   61.8861   46.4026 dc         1 CLA      0.065600
     95 H193       82.9687   62.5868   47.7520 dc         1 CLA      0.065600
     96 H192       81.2772   62.1967   48.4847 dc         1 CLA      0.065600
     97 H191       82.6137   61.0288   48.7193 dc         1 CLA      0.065600
     98 H172       83.6827   60.1114   46.5625 dc         1 CLA      0.027600
     99 H171       83.4388   61.5101   45.6565 dc         1 CLA      0.027600
    100 H162       82.1447   59.6859   43.9764 dc         1 CLA      0.002900
    101 H161       82.4757   58.6093   45.2224 dc         1 CLA      0.002900
    102 H152       85.0477   58.9999   44.8166 dc         1 CLA      0.029100
    103 H151       84.4799   60.0764   43.4693 dc         1 CLA      0.029100
    104 H143       84.8595   56.5363   44.5020 dc         1 CLA      0.063600
    105 H142       83.0455   56.4426   44.0467 dc         1 CLA      0.063600
    106 H141       84.3172   55.8516   43.0101 dc         1 CLA      0.063600
    107 H122       83.3325   59.1752   41.5002 dc         1 CLA      0.032500
    108 H121       82.3874   57.8842   42.2131 dc         1 CLA      0.032500
    109 H112       82.7534   57.5158   39.8464 dc         1 CLA      0.006600
    110 H111       82.9600   56.2118   40.8920 dc         1 CLA      0.006600
    111 H102       85.3224   56.1871   40.9194 dc         1 CLA      0.024100
    112 H101       85.4171   57.8740   40.2839 dc         1 CLA      0.024100
    113 HHD        71.0443   57.1481   40.6340 da         1 CLA      0.174300
    114 HHC        74.9169   61.0241   43.8863 da         1 CLA      0.136800
    115 HHB        79.5558   60.3796   39.5481 da         1 CLA      0.138300
    116 HBD        75.2048   56.5668   35.1795 dc         1 CLA      0.107700
    117 HAB        78.0159   63.1005   43.9619 da         1 CLA      0.155200
    118 H93        87.1702   55.6024   39.0151 dc         1 CLA      0.069500
    119 H92        86.8667   56.2153   37.3352 dc         1 CLA      0.069500
    120 H91        87.0523   57.3109   38.7385 dc         1 CLA      0.069500
    121 H8         84.7983   57.1842   38.0683 dc         1 CLA      0.029300
    122 H72        83.3343   55.1268   38.4826 dc         1 CLA      0.044400
    123 H71        84.7006   54.3304   38.9359 dc         1 CLA      0.044400
    124 H62        85.5670   54.5897   36.4915 dc         1 CLA      0.015600
    125 H61        84.1743   55.4165   36.1053 dc         1 CLA      0.015600
    126 H52        84.3506   52.5766   36.8589 dc         1 CLA      0.033200
    127 H51        84.0933   53.1584   35.3035 dc         1 CLA      0.033200
    128 H43        80.8693   52.0339   37.4339 dc         1 CLA      0.037000
    129 H42        81.7887   51.1936   36.2225 dc         1 CLA      0.037000
    130 H41        82.4323   51.4633   37.8980 dc         1 CLA      0.037000
    131 H3A        79.4476   59.3327   37.2049 dc         1 CLA      0.041100
    132 H2A        78.4433   56.6175   36.9816 dc         1 CLA      0.083100
    133 H2         81.2308   54.8377   37.2684 da         1 CLA      0.180900
    134 H18        81.1933   60.0395   47.0853 dc         1 CLA     -0.003900
    135 H13        85.2265   58.0715   42.6278 dc         1 CLA      0.019700
    136 H12        80.2549   54.0428   34.5862 dc         1 CLA      0.120400
    137 H11        81.8059   54.7505   34.3059 dc         1 CLA      0.120400
    138 C1         68.0305   61.5303   51.0711 Z1         2 LUT      0.509236
    139 C2         66.7354   61.4383   51.9249 Z2         2 LUT     -0.434695
    140 C3         65.8158   62.6795   52.1050 Z3         2 LUT      0.437453
    141 O3         65.8511   63.2398   53.4579 S1         2 LUT     -0.547129
    142 C4         66.3320   63.7849   51.2422 Z4         2 LUT     -0.468603
    143 C5         66.8743   63.4074   49.8732 Z5         2 LUT      0.279246
    144 C6         67.7666   62.3879   49.7987 Z6         2 LUT     -0.305473
    145 C7         68.0331   61.7583   48.5173 Z7         2 LUT      0.069402
    146 C8         69.0662   62.1170   47.7646 Z8         2 LUT     -0.191631
    147 C9         69.3389   61.8499   46.3821 Z9         2 LUT      0.196698
    148 C10        70.3711   62.6238   45.7705 Y1         2 LUT     -0.208611
    149 C11        70.8319   62.5810   44.3966 Y2         2 LUT      0.030784
    150 C12        71.9160   63.3235   44.0226 Y3         2 LUT     -0.220316
    151 C13        72.5854   63.2511   42.7681 Y4         2 LUT      0.215937
    152 C14        73.8893   63.7544   42.5511 Y5         2 LUT     -0.185793
    153 C15        74.8166   63.6986   41.5159 Y6         2 LUT     -0.057835
    154 C16        68.3717   60.0331   50.7717 Y7         2 LUT     -0.405615
    155 C17        69.0862   62.4074   51.8426 Y7         2 LUT     -0.405615
    156 C18        66.1172   64.0320   48.6677 Y9         2 LUT     -0.369639
    157 C19        68.6086   60.7789   45.5751 W1         2 LUT     -0.333362
    158 C20        72.0019   62.4233   41.6712 W2         2 LUT     -0.323439
    159 C21        86.3342   65.4794   35.5399 Z1         2 LUT      0.406104
    160 C22        87.0934   64.8032   34.3379 Z2         2 LUT     -0.404965
    161 C23        87.1570   65.5996   33.0319 Z3         2 LUT      0.391255
    162 O23        87.5457   64.7190   32.0291 S1         2 LUT     -0.528210
    163 C24        85.8803   66.3364   32.7087 W6         2 LUT     -0.258361
    164 C25        84.8928   66.4808   33.5891 Z5         2 LUT      0.133546
    165 C26        84.8817   65.8261   34.9267 W8         2 LUT     -0.147008
    166 C27        83.9606   66.4702   35.9784 Z7         2 LUT      0.023843
    167 C28        82.9281   65.7716   36.5626 Z8         2 LUT     -0.216987
    168 C29        82.1179   66.2445   37.7061 Z9         2 LUT      0.206524
    169 C30        81.2063   65.4384   38.1593 Y1         2 LUT     -0.215556
    170 C31        80.2959   65.5917   39.3424 Y2         2 LUT      0.025142
    171 C32        79.1726   64.9593   39.5988 Y3         2 LUT     -0.212209
    172 C33        78.2548   65.0151   40.7811 Y4         2 LUT      0.240937
    173 C34        77.0815   64.3109   40.7433 Y5         2 LUT     -0.218862
    174 C35        76.0000   64.3351   41.6635 Y6         2 LUT     -0.023547
    175 C36        87.0054   66.7769   35.9172 Y7         2 LUT     -0.393485
    176 C37        86.2841   64.4807   36.7312 Y7         2 LUT     -0.393485
    177 C38        83.6141   67.1635   33.1265 Y9         2 LUT     -0.387526
    178 C39        82.4251   67.6098   38.2609 W1         2 LUT     -0.322618
    179 C40        78.7282   66.0519   41.8370 W2         2 LUT     -0.358472
    180 H403       78.2593   65.8952   42.8358 R7         2 LUT      0.097720
    181 H402       79.8225   65.8072   42.0008 R7         2 LUT      0.097720
    182 H401       78.5819   67.1253   41.5571 R7         2 LUT      0.097720
    183 H393       81.9692   68.3017   37.5571 R4         2 LUT      0.082505
    184 H392       81.9911   67.7711   39.2494 R4         2 LUT      0.082505
    185 H391       83.4705   67.7989   38.3648 R4         2 LUT      0.082505
    186 H383       82.9948   66.5052   32.5290 R1         2 LUT      0.104030
    187 H382       83.1320   67.6664   33.9273 R1         2 LUT      0.104030
    188 H381       83.9777   67.9931   32.4959 R1         2 LUT      0.104030
    189 H373       87.1876   64.2985   37.3115 T4         2 LUT      0.089537
    190 H372       85.4491   64.5607   37.3990 T4         2 LUT      0.089537
    191 H371       86.1188   63.5392   36.2525 T4         2 LUT      0.089537
    192 H363       87.8127   66.6060   36.5941 T4         2 LUT      0.089537
    193 H362       87.2551   67.4994   35.1163 T4         2 LUT      0.089537
    194 H361       86.2551   67.3228   36.5713 T4         2 LUT      0.089537
    195 H222       88.1110   64.4800   34.5748 U2         2 LUT      0.127376
    196 H221       86.5672   63.9130   34.1051 U2         2 LUT      0.127376
    197 H203       72.6728   62.2162   40.8714 R7         2 LUT      0.087068
    198 H202       71.6499   61.4540   42.0981 R7         2 LUT      0.087068
    199 H201       71.1220   62.8820   41.1807 R7         2 LUT      0.087068
    200 H193       68.2744   59.9190   46.1930 R4         2 LUT      0.089716
    201 H192       67.7623   61.1215   45.0420 R4         2 LUT      0.089716
    202 H191       69.2188   60.2587   44.8402 R4         2 LUT      0.089716
    203 H183       66.0581   63.3806   47.8064 R1         2 LUT      0.094572
    204 H182       65.0452   64.0757   49.0717 R1         2 LUT      0.094572
    205 H181       66.4661   64.9639   48.4180 R1         2 LUT      0.094572
    206 H173       69.4576   61.8796   52.7322 T4         2 LUT      0.093752
    207 H172       70.0072   62.5854   51.3031 T4         2 LUT      0.093752
    208 H171       68.6571   63.3642   52.1927 T4         2 LUT      0.093752
    209 H163       68.4521   59.4941   51.6950 T4         2 LUT      0.093752
    210 H162       67.6716   59.4999   50.1645 T4         2 LUT      0.093752
    211 H161       69.3706   59.9420   50.3330 T4         2 LUT      0.093752
    212 HO3        65.2357   62.6595   53.9942 Q1         2 LUT      0.300121
    213 H8         69.7057   62.7913   48.2534 U7         2 LUT      0.080784
    214 H7         67.1813   61.1648   48.1477 U6         2 LUT      0.042190
    215 H42        65.5301   64.5043   51.0164 U5         2 LUT      0.145166
    216 H41        67.0509   64.4160   51.7697 U5         2 LUT      0.145166
    217 H35        76.2029   64.8608   42.5727 T3         2 LUT      0.077919
    218 H34        76.9908   63.6178   39.9079 T2         2 LUT      0.073626
    219 H32        78.8171   64.3425   38.8762 T1         2 LUT      0.092510
    220 H31        80.6476   66.3673   40.0249 U9         2 LUT      0.070048
    221 H30        81.1365   64.5318   37.6446 U8         2 LUT      0.085442
    222 H3         64.7793   62.4487   51.7489 U3         2 LUT     -0.031596
    223 H28        82.7839   64.7824   36.1356 U7         2 LUT      0.084728
    224 H27        84.2529   67.4256   36.4022 U6         2 LUT      0.087291
    225 H26        84.3818   64.9106   34.6731 Q6         2 LUT      0.075325
    226 H24        85.8172   66.7987   31.7115 Q5         2 LUT      0.094482
    227 H23        87.8885   66.4448   33.1731 U3         2 LUT     -0.024869
    228 H22        66.1500   60.7377   51.3908 U2         2 LUT      0.127376
    229 H21        66.8967   61.0863   52.9142 U2         2 LUT      0.127376
    230 H15        74.7537   63.0858   40.6496 T3         2 LUT      0.093200
    231 H14        74.1849   64.2482   43.4880 T2         2 LUT      0.068865
    232 H12        72.3877   63.7925   44.8915 T1         2 LUT      0.095507
    233 H11        70.3797   61.8610   43.6850 U9         2 LUT      0.068930
    234 H10        70.8782   63.3366   46.3929 U8         2 LUT      0.083911
    235 H1         87.6470   65.0747   31.1769 Q1         2 LUT      0.297311
@<TRIPOS>BOND
    1     6     1 1
    2     7     2 1
    3     8     3 1
    4     9     4 1
    5    11     4 1
    6    12     6 1
    7    13     9 1
    8    16     9 1
    9    25     5 1
   10    25    16 1
   11    26    10 1
   12    26    17 1
   13    27    18 1
   14    28    14 1
   15    28    19 1
   16    29    12 1
   17    30    13 1
   18    31    24 1
   19    32     1 1
   20    32    25 1
   21    33    21 1
   22    33    26 1
   23    34    22 1
   24    34    27 1
   25    35    23 1
   26    35    28 1
   27    36    12 1
   28    36    24 1
   29    37    13 1
   30    37    15 1
   31    38    31 1
   32    39    20 1
   33    39    32 1
   34    40     2 1
   35    40    33 1
   36    41     3 1
   37    41    34 1
   38    42     4 1
   39    42    35 1
   40    43    38 1
   41    44     5 1
   42    44    17 1
   43    44    39 1
   44    45    10 1
   45    45    18 1
   46    45    40 1
   47    46    19 1
   48    46    41 1
   49    47    14 1
   50    47    16 1
   51    47    42 1
   52    48    38 1
   53    49    48 1
   54    50    49 1
   55    51    50 1
   56    52    51 1
   57    53    51 1
   58    54    53 1
   59    55    54 1
   60    56    55 1
   61    57    56 1
   62    58    56 1
   63    59    58 1
   64    60    59 1
   65    61    60 1
   66    62    61 1
   67    63    61 1
   68    64    27 1
   69    64    46 1
   70    65     5 1
   71    65    10 1
   72    65    64 1
   73    65    14 1
   74    66    23 1
   75    67    23 1
   76    68    23 1
   77    69    22 1
   78    70    22 1
   79    71    22 1
   80    72    21 1
   81    73    21 1
   82    74    21 1
   83    75    20 1
   84    76    20 1
   85    77    20 1
   86    78    15 1
   87    79    15 1
   88    80    15 1
   89    81     8 1
   90    82     8 1
   91    83     8 1
   92    84     7 1
   93    85     7 1
   94    86     6 1
   95    87     6 1
   96    88     3 1
   97    89     3 1
   98    90     1 1
   99    91     1 1
  100    92    63 1
  101    93    63 1
  102    94    63 1
  103    95    62 1
  104    96    62 1
  105    97    62 1
  106    98    60 1
  107    99    60 1
  108   100    59 1
  109   101    59 1
  110   102    58 1
  111   103    58 1
  112   104    57 1
  113   105    57 1
  114   106    57 1
  115   107    55 1
  116   108    55 1
  117   109    54 1
  118   110    54 1
  119   111    53 1
  120   112    53 1
  121   113    19 1
  122   114    18 1
  123   115    17 1
  124   116     9 1
  125   117     2 1
  126   118    52 1
  127   119    52 1
  128   120    52 1
  129   121    51 1
  130   122    50 1
  131   123    50 1
  132   124    49 1
  133   125    49 1
  134   126    48 1
  135   127    48 1
  136   128    43 1
  137   129    43 1
  138   130    43 1
  139   131    39 1
  140   132    32 1
  141   133    31 1
  142   134    61 1
  143   135    56 1
  144   136    24 1
  145   137    24 1
  146   139   138 1
  147   140   139 1
  148   141   140 1
  149   142   140 1
  150   143   142 1
  151   144   138 1
  152   144   143 1
  153   145   144 1
  154   146   145 1
  155   147   146 1
  156   148   147 1
  157   149   148 1
  158   150   149 1
  159   151   150 1
  160   152   151 1
  161   153   152 1
  162   154   138 1
  163   155   138 1
  164   156   143 1
  165   157   147 1
  166   158   151 1
  167   160   159 1
  168   161   160 1
  169   162   161 1
  170   163   161 1
  171   164   163 1
  172   165   159 1
  173   165   164 1
  174   166   165 1
  175   167   166 1
  176   168   167 1
  177   169   168 1
  178   170   169 1
  179   171   170 1
  180   172   171 1
  181   173   172 1
  182   174   153 1
  183   174   173 1
  184   175   159 1
  185   176   159 1
  186   177   164 1
  187   178   168 1
  188   179   172 1
  189   180   179 1
  190   181   179 1
  191   182   179 1
  192   183   178 1
  193   184   178 1
  194   185   178 1
  195   186   177 1
  196   187   177 1
  197   188   177 1
  198   189   176 1
  199   190   176 1
  200   191   176 1
  201   192   175 1
  202   193   175 1
  203   194   175 1
  204   195   160 1
  205   196   160 1
  206   197   158 1
  207   198   158 1
  208   199   158 1
  209   200   157 1
  210   201   157 1
  211   202   157 1
  212   203   156 1
  213   204   156 1
  214   205   156 1
  215   206   155 1
  216   207   155 1
  217   208   155 1
  218   209   154 1
  219   210   154 1
  220   211   154 1
  221   212   141 1
  222   213   146 1
  223   214   145 1
  224   215   142 1
  225   216   142 1
  226   217   174 1
  227   218   173 1
  228   219   171 1
  229   220   170 1
  230   221   169 1
  231   222   140 1
  232   223   167 1
  233   224   166 1
  234   225   165 1
  235   226   163 1
  236   227   161 1
  237   228   139 1
  238   229   139 1
  239   230   153 1
  240   231   152 1
  241   232   150 1
  242   233   149 1
  243   234   148 1
  244   235   162 1
  245   65    153 1
  246   65    174 1
@<TRIPOS>SUBSTRUCTURE
      1 CLA               1 ****               0 ****  **** 
      2 LUT             138 ****               0 ****  **** 
