@<TRIPOS>MOLECULE
Cpptraj generated mol2 file.
  235   246     2     0     0
SMALL
USER_CHARGES


@<TRIPOS>ATOM
      1 CAA        79.8271   58.8056   33.9085 a2         1 CLA     -0.055900
      2 CAB        79.6719   62.4698   42.7714 c8         1 CLA     -0.148500
      3 CAC        72.6507   58.4724   42.0450 a2         1 CLA     -0.012600
      4 CAD        75.6922   55.9399   34.9360 ck         1 CLA      0.398800
      5 NA         78.7145   59.0885   37.1568 ns         1 CLA     -0.225500
      6 CBA        81.0833   58.7277   33.0324 a2         1 CLA     -0.135000
      7 CBB        80.8155   62.7213   43.4225 c0         1 CLA     -0.395200
      8 CBC        72.5742   57.0134   42.5561 a3         1 CLA     -0.037700
      9 CBD        77.0714   56.6003   34.5532 a1         1 CLA     -0.053900
     10 NB         78.5851   60.4209   39.8559 nm         1 CLA     -0.295700
     11 OBD        75.1337   55.0720   34.2333 o2         1 CLA     -0.494600
     12 CGA        81.5737   57.3549   32.5384 c4         1 CLA      0.827000
     13 CGD        78.0358   55.6024   33.9683 c4         1 CLA      0.655300
     14 ND         76.0925   58.0396   37.7989 nm         1 CLA     -0.291600
     15 CED        78.4869   53.2934   34.2488 a3         1 CLA      0.005400
     16 CHA        77.4633   57.4860   35.6949 cs         1 CLA     -0.123800
     17 CHB        80.5224   60.3435   38.3542 aa         1 CLA     -0.291900
     18 CHC        77.1581   60.7790   41.8398 aa         1 CLA     -0.090400
     19 CHD        74.2299   57.8568   39.4171 aa         1 CLA     -0.052000
     20 CMA        82.2005   58.4233   36.6937 a3         1 CLA     -0.230700
     21 CMB        81.9197   62.1375   40.4691 a3         1 CLA     -0.180800
     22 CMC        74.6547   60.2883   43.8848 a3         1 CLA     -0.134000
     23 CMD        73.2381   55.5909   37.2813 a3         1 CLA     -0.141100
     24 C1         82.5782   55.2578   33.2248 a2         1 CLA      0.023000
     25 C1A        78.6103   58.2847   36.0020 ac         1 CLA     -0.015100
     26 C1B        79.9320   60.8000   39.4917 cr         1 CLA      0.054700
     27 C1C        76.0297   60.0336   41.5478 cn         1 CLA     -0.005600
     28 C1D        74.8931   57.4845   38.1770 ap         1 CLA     -0.047300
     29 O1A        81.4445   56.8690   31.3837 o2         1 CLA     -0.610800
     30 O1D        78.6874   55.6209   32.9253 o2         1 CLA     -0.558200
     31 C2         83.2111   54.7126   34.5275 c8         1 CLA     -0.325100
     32 C2A        79.9774   58.2882   35.3354 a1         1 CLA      0.098600
     33 C2B        80.5104   61.4831   40.5821 cb         1 CLA      0.088500
     34 C2C        74.8345   59.8426   42.3803 cb         1 CLA      0.053700
     35 C2D        74.4257   56.5245   37.1747 cb         1 CLA      0.058900
     36 O2A        82.2729   56.7086   33.5217 o1         1 CLA     -0.437200
     37 O2D        78.1230   54.5249   34.8244 o1         1 CLA     -0.357600
     38 C3         84.5292   54.3287   34.4332 c5         1 CLA      0.031200
     39 C3A        80.9529   59.1186   36.2217 a1         1 CLA      0.166800
     40 C3B        79.5307   61.6494   41.5473 cb         1 CLA      0.035000
     41 C3C        73.9890   59.0213   41.5923 cb         1 CLA     -0.089900
     42 C3D        75.3307   56.5542   36.1859 cb         1 CLA     -0.035900
     43 C4         84.9343   52.8713   34.5958 a3         1 CLA     -0.053300
     44 C4A        79.9925   59.6163   37.3050 ac         1 CLA      0.001800
     45 C4B        78.3293   60.9579   41.0710 cn         1 CLA     -0.020900
     46 C4C        74.6591   58.7519   40.3862 cr         1 CLA     -0.044400
     47 C4D        76.3336   57.5347   36.5463 c6         1 CLA     -0.046000
     48 C5         85.6263   55.3293   34.3151 a2         1 CLA     -0.070400
     49 C6         85.7403   56.5057   35.3081 a2         1 CLA      0.043900
     50 C7         85.6949   56.1924   36.8297 a2         1 CLA     -0.150000
     51 C8         86.6017   57.0632   37.7064 a1         1 CLA      0.064200
     52 C9         88.0627   56.5151   37.5734 a3         1 CLA     -0.259300
     53 C10        86.0571   57.0722   39.2708 a2         1 CLA     -0.071900
     54 C11        86.8888   57.5251   40.5397 a2         1 CLA      0.014500
     55 C12        86.3879   57.1140   41.9040 a2         1 CLA     -0.112100
     56 C13        87.0609   57.6449   43.1865 a1         1 CLA      0.089200
     57 C14        88.5950   57.5485   43.1647 a3         1 CLA     -0.239100
     58 C15        86.5760   56.7675   44.4019 a2         1 CLA     -0.102200
     59 C16        85.0799   56.8961   44.8625 a2         1 CLA      0.023900
     60 C17        84.8735   58.1884   45.5192 a2         1 CLA     -0.105700
     61 C18        83.3803   58.5120   45.5884 a1         1 CLA      0.206800
     62 C19        82.5954   57.4274   46.5506 a3         1 CLA     -0.280100
     63 C20        83.1238   59.9503   46.0256 a3         1 CLA     -0.280100
     64 NC         75.8389   59.3820   40.3630 nx         1 CLA     -0.309200
     65 MG         77.3134   59.2948   38.7938 mg         1 CLA      0.895000
     66 HMD3       73.5461   54.6570   36.8080 dc         1 CLA      0.064300
     67 HMD2       73.0105   55.3036   38.2856 dc         1 CLA      0.064300
     68 HMD1       72.4233   55.9660   36.7496 dc         1 CLA      0.064300
     69 HMC3       73.9899   59.6221   44.3710 dc         1 CLA      0.052100
     70 HMC2       75.5799   60.1716   44.4339 dc         1 CLA      0.052100
     71 HMC1       74.3076   61.2959   43.9810 dc         1 CLA      0.052100
     72 HMB3       82.6449   61.4443   40.8827 dc         1 CLA      0.063600
     73 HMB2       82.1394   62.5766   39.4201 dc         1 CLA      0.063600
     74 HMB1       81.9161   63.0203   41.1149 dc         1 CLA      0.063600
     75 HMA3       82.0816   57.5762   37.3525 dc         1 CLA      0.058300
     76 HMA2       82.7192   58.0647   35.7673 dc         1 CLA      0.058300
     77 HMA1       82.9826   59.0439   37.2493 dc         1 CLA      0.058300
     78 HED3       79.4026   53.3660   33.6230 dc         1 CLA      0.079300
     79 HED2       78.5709   52.5889   35.0724 dc         1 CLA      0.079300
     80 HED1       77.5786   52.9470   33.7124 dc         1 CLA      0.079300
     81 HBC3       71.6285   56.9346   43.0448 dc         1 CLA      0.016300
     82 HBC2       72.5573   56.3659   41.7155 dc         1 CLA      0.016300
     83 HBC1       73.4908   56.7958   43.0910 dc         1 CLA      0.016300
     84 HBB2       80.8243   63.4442   44.2317 da         1 CLA      0.183000
     85 HBB1       81.7812   62.2742   43.1335 da         1 CLA      0.183000
     86 HBA2       80.8806   59.3629   32.1548 dc         1 CLA      0.029400
     87 HBA1       81.8712   59.2058   33.6385 dc         1 CLA      0.029400
     88 HAC2       72.4191   58.9731   42.9409 dc         1 CLA      0.029300
     89 HAC1       71.9170   58.6188   41.2455 dc         1 CLA      0.029300
     90 HAA2       79.0421   58.2674   33.3877 dc         1 CLA      0.028700
     91 HAA1       79.5624   59.8454   34.0500 dc         1 CLA      0.028700
     92 H203       83.3394   60.5670   45.1225 dc         1 CLA      0.065600
     93 H202       82.0643   60.1339   46.2772 dc         1 CLA      0.065600
     94 H201       83.6988   60.2505   46.8549 dc         1 CLA      0.065600
     95 H193       81.5798   57.6259   46.4659 dc         1 CLA      0.065600
     96 H192       82.7549   56.3890   46.2593 dc         1 CLA      0.065600
     97 H191       82.9326   57.3610   47.5722 dc         1 CLA      0.065600
     98 H172       85.1766   58.2476   46.5799 dc         1 CLA      0.027600
     99 H171       85.3907   58.9572   44.9733 dc         1 CLA      0.027600
    100 H162       84.3472   56.7595   44.0200 dc         1 CLA      0.002900
    101 H161       84.8568   56.0920   45.6240 dc         1 CLA      0.002900
    102 H152       86.8102   55.7208   44.2328 dc         1 CLA      0.029100
    103 H151       87.1887   57.0286   45.2927 dc         1 CLA      0.029100
    104 H143       88.8623   58.4050   42.5449 dc         1 CLA      0.063600
    105 H142       88.9418   57.6899   44.1730 dc         1 CLA      0.063600
    106 H141       88.8605   56.6499   42.5681 dc         1 CLA      0.063600
    107 H122       85.3689   57.4468   41.8888 dc         1 CLA      0.032500
    108 H121       86.4784   56.0389   42.0012 dc         1 CLA      0.032500
    109 H112       87.7973   56.8822   40.3901 dc         1 CLA      0.006600
    110 H111       87.2275   58.5657   40.3669 dc         1 CLA      0.006600
    111 H102       85.1652   57.7364   39.1500 dc         1 CLA      0.024100
    112 H101       85.7234   56.0340   39.5118 dc         1 CLA      0.024100
    113 HHD        73.2174   57.3852   39.5636 da         1 CLA      0.174300
    114 HHC        77.2365   61.3566   42.7701 da         1 CLA      0.136800
    115 HHB        81.5823   60.5502   38.1988 da         1 CLA      0.138300
    116 HBD        76.8342   57.2032   33.7207 dc         1 CLA      0.107700
    117 HAB        78.7672   62.9362   43.2083 da         1 CLA      0.155200
    118 H93        88.3918   56.4791   36.5438 dc         1 CLA      0.069500
    119 H92        88.7038   57.1409   38.0847 dc         1 CLA      0.069500
    120 H91        88.1674   55.5155   38.0815 dc         1 CLA      0.069500
    121 H8         86.6353   58.0685   37.2756 dc         1 CLA      0.029300
    122 H72        84.6019   56.4503   37.0567 dc         1 CLA      0.044400
    123 H71        85.9295   55.0910   36.9366 dc         1 CLA      0.044400
    124 H62        86.6731   56.9345   35.0777 dc         1 CLA      0.015600
    125 H61        85.0213   57.2967   35.1029 dc         1 CLA      0.015600
    126 H52        86.6437   54.9018   34.4089 dc         1 CLA      0.033200
    127 H51        85.5953   55.6999   33.2613 dc         1 CLA      0.033200
    128 H43        85.4252   52.8135   35.5904 dc         1 CLA      0.037000
    129 H42        83.9429   52.3626   34.5949 dc         1 CLA      0.037000
    130 H41        85.6065   52.5395   33.8485 dc         1 CLA      0.037000
    131 H3A        81.3799   59.9481   35.6658 dc         1 CLA      0.041100
    132 H2A        80.3150   57.2722   35.3592 dc         1 CLA      0.083100
    133 H2         82.6755   54.8128   35.4335 da         1 CLA      0.180900
    134 H18        83.0773   58.3511   44.5273 dc         1 CLA     -0.003900
    135 H13        86.7788   58.6947   43.2907 dc         1 CLA      0.019700
    136 H12        81.7694   54.7124   32.9056 dc         1 CLA      0.120400
    137 H11        83.3390   55.2122   32.4847 dc         1 CLA      0.120400
    138 C1         68.9699   61.5825   49.5150 Z1         2 LUT      0.509236
    139 C2         67.5846   61.4201   50.0413 Z2         2 LUT     -0.434695
    140 C3         66.8504   62.7043   50.4716 Z3         2 LUT      0.437453
    141 O3         66.9251   62.8112   51.9421 S1         2 LUT     -0.547129
    142 C4         67.2861   63.9196   49.6963 Z4         2 LUT     -0.468603
    143 C5         68.2191   63.8484   48.5692 Z5         2 LUT      0.279246
    144 C6         68.9736   62.7550   48.4696 Z6         2 LUT     -0.305473
    145 C7         69.5427   62.4721   47.0927 Z7         2 LUT      0.069402
    146 C8         70.4669   63.1925   46.4430 Z8         2 LUT     -0.191631
    147 C9         71.0979   62.8381   45.1706 Z9         2 LUT      0.196698
    148 C10        72.0890   63.6711   44.6599 Y1         2 LUT     -0.208611
    149 C11        72.8197   63.5118   43.4233 Y2         2 LUT      0.030784
    150 C12        73.9382   64.2046   43.1469 Y3         2 LUT     -0.220316
    151 C13        74.8118   64.0767   42.0377 Y4         2 LUT      0.215937
    152 C14        75.9933   64.7905   42.0362 Y5         2 LUT     -0.185793
    153 C15        77.0032   64.6078   41.0367 Y6         2 LUT     -0.057835
    154 C16        69.5540   60.1989   49.0812 Y7         2 LUT     -0.405615
    155 C17        69.7403   62.0352   50.8098 Y7         2 LUT     -0.405615
    156 C18        67.8326   64.7390   47.4719 Y9         2 LUT     -0.369639
    157 C19        70.7807   61.5590   44.4319 W1         2 LUT     -0.333362
    158 C20        74.2844   63.3379   40.7470 W2         2 LUT     -0.323439
    159 C21        88.4948   66.4102   35.2454 Z1         2 LUT      0.406104
    160 C22        89.1421   65.9119   33.9033 Z2         2 LUT     -0.404965
    161 C23        89.3415   66.9535   32.7931 Z3         2 LUT      0.391255
    162 O23        89.9562   66.2409   31.6872 S1         2 LUT     -0.528210
    163 C24        88.0365   67.7886   32.6431 W6         2 LUT     -0.258361
    164 C25        87.0284   67.7824   33.5020 Z5         2 LUT      0.133546
    165 C26        87.0721   66.8825   34.8042 W8         2 LUT     -0.147008
    166 C27        86.3170   67.3008   36.0179 Z7         2 LUT      0.023843
    167 C28        85.5276   66.4948   36.8133 Z8         2 LUT     -0.216987
    168 C29        84.6040   67.0089   37.8512 Z9         2 LUT      0.206524
    169 C30        83.4951   66.2744   38.0964 Y1         2 LUT     -0.215556
    170 C31        82.5841   66.4249   39.2300 Y2         2 LUT      0.025142
    171 C32        81.4179   65.7495   39.3956 Y3         2 LUT     -0.212209
    172 C33        80.4462   65.9729   40.4688 Y4         2 LUT      0.240937
    173 C34        79.2912   65.2571   40.3428 Y5         2 LUT     -0.218862
    174 C35        78.1863   65.2734   41.2211 Y6         2 LUT     -0.023547
    175 C36        89.3423   67.5167   35.9196 Y7         2 LUT     -0.393485
    176 C37        88.6188   65.1814   36.1916 Y7         2 LUT     -0.393485
    177 C38        85.6468   68.3410   33.1014 Y9         2 LUT     -0.387526
    178 C39        84.9113   68.2452   38.6866 W1         2 LUT     -0.322618
    179 C40        80.6066   66.9785   41.5865 W2         2 LUT     -0.358472
    180 H403       80.0669   67.8493   41.3245 R7         2 LUT      0.097720
    181 H402       80.1567   66.6071   42.4640 R7         2 LUT      0.097720
    182 H401       81.6375   67.3861   41.8335 R7         2 LUT      0.097720
    183 H393       85.9151   68.4066   38.4178 R4         2 LUT      0.082505
    184 H392       84.4178   69.1484   38.4466 R4         2 LUT      0.082505
    185 H391       85.0223   67.9546   39.7158 R4         2 LUT      0.082505
    186 H383       85.6827   68.8909   32.1003 R1         2 LUT      0.104030
    187 H382       84.8375   67.5545   33.0008 R1         2 LUT      0.104030
    188 H381       85.3216   68.9780   33.9094 R1         2 LUT      0.104030
    189 H373       89.6684   64.7644   36.1658 T4         2 LUT      0.089537
    190 H372       88.3054   65.5439   37.1637 T4         2 LUT      0.089537
    191 H371       87.9936   64.3643   35.8247 T4         2 LUT      0.089537
    192 H363       89.2880   68.4835   35.3161 T4         2 LUT      0.089537
    193 H362       89.0273   67.6549   36.9588 T4         2 LUT      0.089537
    194 H361       90.4351   67.2278   36.0012 T4         2 LUT      0.089537
    195 H222       90.1675   65.5427   34.1294 U2         2 LUT      0.127376
    196 H221       88.5394   65.1094   33.4603 U2         2 LUT      0.127376
    197 H203       74.3182   62.3022   41.0046 R7         2 LUT      0.087068
    198 H202       73.2914   63.5393   40.3745 R7         2 LUT      0.087068
    199 H201       74.8696   63.5082   39.9108 R7         2 LUT      0.087068
    200 H193       71.5538   60.8785   44.8586 R4         2 LUT      0.089716
    201 H192       69.8429   61.1029   44.6194 R4         2 LUT      0.089716
    202 H191       70.9952   61.8036   43.4099 R4         2 LUT      0.089716
    203 H183       68.5912   64.8144   46.6964 R1         2 LUT      0.094572
    204 H182       66.8730   64.3784   47.0676 R1         2 LUT      0.094572
    205 H181       67.6656   65.7564   47.8158 R1         2 LUT      0.094572
    206 H173       69.5249   63.1215   51.0668 T4         2 LUT      0.093752
    207 H172       69.3635   61.5769   51.7499 T4         2 LUT      0.093752
    208 H171       70.8177   61.9226   50.7354 T4         2 LUT      0.093752
    209 H163       70.6415   60.1646   48.8273 T4         2 LUT      0.093752
    210 H162       69.4833   59.5231   49.9961 T4         2 LUT      0.093752
    211 H161       68.8817   59.7079   48.4005 T4         2 LUT      0.093752
    212 HO3        66.1178   63.0468   52.3393 Q1         2 LUT      0.300121
    213 H8         70.8432   64.1156   46.8337 U7         2 LUT      0.080784
    214 H7         69.1903   61.5600   46.6014 U6         2 LUT      0.042190
    215 H42        66.3402   64.3153   49.2533 U5         2 LUT      0.145166
    216 H41        67.5772   64.7665   50.2969 U5         2 LUT      0.145166
    217 H35        78.2793   65.9486   42.0453 T3         2 LUT      0.077919
    218 H34        79.0654   64.5728   39.4837 T2         2 LUT      0.073626
    219 H32        81.0780   65.0515   38.5953 T1         2 LUT      0.092510
    220 H31        82.8494   67.0943   40.0300 U9         2 LUT      0.070048
    221 H30        83.3793   65.4266   37.4215 U8         2 LUT      0.085442
    222 H3         65.7029   62.5701   50.3023 U3         2 LUT     -0.031596
    223 H28        85.2956   65.4900   36.4505 U7         2 LUT      0.084728
    224 H27        86.1148   68.3173   36.1425 U6         2 LUT      0.087291
    225 H26        86.7644   65.8624   34.4382 Q6         2 LUT      0.075325
    226 H24        87.9857   68.4007   31.7232 Q5         2 LUT      0.094482
    227 H23        90.1291   67.6535   33.1350 U3         2 LUT     -0.024869
    228 H22        67.0118   61.0732   49.1566 U2         2 LUT      0.127376
    229 H21        67.5126   60.6542   50.8417 U2         2 LUT      0.127376
    230 H15        77.0222   63.9338   40.2113 T3         2 LUT      0.093200
    231 H14        76.1829   65.4215   42.9849 T2         2 LUT      0.068865
    232 H12        74.1912   64.9943   43.9038 T1         2 LUT      0.095507
    233 H11        72.5203   62.9031   42.6508 U9         2 LUT      0.068930
    234 H10        72.3300   64.5066   45.2798 U8         2 LUT      0.083911
    235 H1         89.3169   65.9239   30.9986 Q1         2 LUT      0.297311
@<TRIPOS>BOND
    1     6     1 1
    2     7     2 1
    3     8     3 1
    4     9     4 1
    5    11     4 1
    6    12     6 1
    7    13     9 1
    8    16     9 1
    9    25     5 1
   10    25    16 1
   11    26    10 1
   12    26    17 1
   13    27    18 1
   14    28    14 1
   15    28    19 1
   16    29    12 1
   17    30    13 1
   18    31    24 1
   19    32     1 1
   20    32    25 1
   21    33    21 1
   22    33    26 1
   23    34    22 1
   24    34    27 1
   25    35    23 1
   26    35    28 1
   27    36    12 1
   28    36    24 1
   29    37    13 1
   30    37    15 1
   31    38    31 1
   32    39    20 1
   33    39    32 1
   34    40     2 1
   35    40    33 1
   36    41     3 1
   37    41    34 1
   38    42     4 1
   39    42    35 1
   40    43    38 1
   41    44     5 1
   42    44    17 1
   43    44    39 1
   44    45    10 1
   45    45    18 1
   46    45    40 1
   47    46    19 1
   48    46    41 1
   49    47    14 1
   50    47    16 1
   51    47    42 1
   52    48    38 1
   53    49    48 1
   54    50    49 1
   55    51    50 1
   56    52    51 1
   57    53    51 1
   58    54    53 1
   59    55    54 1
   60    56    55 1
   61    57    56 1
   62    58    56 1
   63    59    58 1
   64    60    59 1
   65    61    60 1
   66    62    61 1
   67    63    61 1
   68    64    27 1
   69    64    46 1
   70    65     5 1
   71    65    10 1
   72    65    64 1
   73    65    14 1
   74    66    23 1
   75    67    23 1
   76    68    23 1
   77    69    22 1
   78    70    22 1
   79    71    22 1
   80    72    21 1
   81    73    21 1
   82    74    21 1
   83    75    20 1
   84    76    20 1
   85    77    20 1
   86    78    15 1
   87    79    15 1
   88    80    15 1
   89    81     8 1
   90    82     8 1
   91    83     8 1
   92    84     7 1
   93    85     7 1
   94    86     6 1
   95    87     6 1
   96    88     3 1
   97    89     3 1
   98    90     1 1
   99    91     1 1
  100    92    63 1
  101    93    63 1
  102    94    63 1
  103    95    62 1
  104    96    62 1
  105    97    62 1
  106    98    60 1
  107    99    60 1
  108   100    59 1
  109   101    59 1
  110   102    58 1
  111   103    58 1
  112   104    57 1
  113   105    57 1
  114   106    57 1
  115   107    55 1
  116   108    55 1
  117   109    54 1
  118   110    54 1
  119   111    53 1
  120   112    53 1
  121   113    19 1
  122   114    18 1
  123   115    17 1
  124   116     9 1
  125   117     2 1
  126   118    52 1
  127   119    52 1
  128   120    52 1
  129   121    51 1
  130   122    50 1
  131   123    50 1
  132   124    49 1
  133   125    49 1
  134   126    48 1
  135   127    48 1
  136   128    43 1
  137   129    43 1
  138   130    43 1
  139   131    39 1
  140   132    32 1
  141   133    31 1
  142   134    61 1
  143   135    56 1
  144   136    24 1
  145   137    24 1
  146   139   138 1
  147   140   139 1
  148   141   140 1
  149   142   140 1
  150   143   142 1
  151   144   138 1
  152   144   143 1
  153   145   144 1
  154   146   145 1
  155   147   146 1
  156   148   147 1
  157   149   148 1
  158   150   149 1
  159   151   150 1
  160   152   151 1
  161   153   152 1
  162   154   138 1
  163   155   138 1
  164   156   143 1
  165   157   147 1
  166   158   151 1
  167   160   159 1
  168   161   160 1
  169   162   161 1
  170   163   161 1
  171   164   163 1
  172   165   159 1
  173   165   164 1
  174   166   165 1
  175   167   166 1
  176   168   167 1
  177   169   168 1
  178   170   169 1
  179   171   170 1
  180   172   171 1
  181   173   172 1
  182   174   153 1
  183   174   173 1
  184   175   159 1
  185   176   159 1
  186   177   164 1
  187   178   168 1
  188   179   172 1
  189   180   179 1
  190   181   179 1
  191   182   179 1
  192   183   178 1
  193   184   178 1
  194   185   178 1
  195   186   177 1
  196   187   177 1
  197   188   177 1
  198   189   176 1
  199   190   176 1
  200   191   176 1
  201   192   175 1
  202   193   175 1
  203   194   175 1
  204   195   160 1
  205   196   160 1
  206   197   158 1
  207   198   158 1
  208   199   158 1
  209   200   157 1
  210   201   157 1
  211   202   157 1
  212   203   156 1
  213   204   156 1
  214   205   156 1
  215   206   155 1
  216   207   155 1
  217   208   155 1
  218   209   154 1
  219   210   154 1
  220   211   154 1
  221   212   141 1
  222   213   146 1
  223   214   145 1
  224   215   142 1
  225   216   142 1
  226   217   174 1
  227   218   173 1
  228   219   171 1
  229   220   170 1
  230   221   169 1
  231   222   140 1
  232   223   167 1
  233   224   166 1
  234   225   165 1
  235   226   163 1
  236   227   161 1
  237   228   139 1
  238   229   139 1
  239   230   153 1
  240   231   152 1
  241   232   150 1
  242   233   149 1
  243   234   148 1
  244   235   162 1
  245   65    153 1
  246   65    174 1
@<TRIPOS>SUBSTRUCTURE
      1 CLA               1 ****               0 ****  **** 
      2 LUT             138 ****               0 ****  **** 
