@<TRIPOS>MOLECULE
Cpptraj generated mol2 file.
  235   246     2     0     0
SMALL
USER_CHARGES


@<TRIPOS>ATOM
      1 CAA        79.6058   59.0938   34.7984 a2         1 CLA     -0.055900
      2 CAB        79.6312   62.2246   43.9953 c8         1 CLA     -0.148500
      3 CAC        72.7846   58.1806   43.2843 a2         1 CLA     -0.012600
      4 CAD        75.2424   56.9473   35.6801 ck         1 CLA      0.398800
      5 NA         78.7319   59.2976   38.2664 ns         1 CLA     -0.225500
      6 CBA        80.7298   58.7920   33.8015 a2         1 CLA     -0.135000
      7 CBB        80.8883   62.3380   44.5801 c0         1 CLA     -0.395200
      8 CBC        73.0007   56.6857   43.1592 a3         1 CLA     -0.037700
      9 CBD        76.7927   57.4132   35.4913 a1         1 CLA     -0.053900
     10 NB         78.4478   60.8360   40.8185 nm         1 CLA     -0.295700
     11 OBD        74.5518   56.4036   34.8607 o2         1 CLA     -0.494600
     12 CGA        81.0432   57.3879   33.3573 c4         1 CLA      0.827000
     13 CGD        77.6240   56.1645   35.2209 c4         1 CLA      0.655300
     14 ND         75.7565   58.4503   38.8138 nm         1 CLA     -0.291600
     15 CED        78.3091   54.0086   35.8661 a3         1 CLA      0.005400
     16 CHA        77.2026   58.0625   36.7784 cs         1 CLA     -0.123800
     17 CHB        80.3865   60.8850   39.1956 aa         1 CLA     -0.291900
     18 CHC        77.1632   60.8018   42.9991 aa         1 CLA     -0.090400
     19 CHD        73.9090   58.3531   40.3626 aa         1 CLA     -0.052000
     20 CMA        82.1341   58.6849   37.5477 a3         1 CLA     -0.230700
     21 CMB        81.7200   62.4872   41.4367 a3         1 CLA     -0.180800
     22 CMC        74.9426   60.0929   45.0759 a3         1 CLA     -0.134000
     23 CMD        72.4318   57.1450   37.7292 a3         1 CLA     -0.141100
     24 C1         81.7681   55.2365   34.1774 a2         1 CLA      0.023000
     25 C1A        78.5370   58.6746   37.0920 ac         1 CLA     -0.015100
     26 C1B        79.7120   61.2562   40.3661 cr         1 CLA      0.054700
     27 C1C        76.0193   60.1274   42.6285 cn         1 CLA     -0.005600
     28 C1D        74.4658   58.0716   39.1520 ap         1 CLA     -0.047300
     29 O1A        80.8734   56.8711   32.2969 o2         1 CLA     -0.610800
     30 O1D        78.2968   56.0169   34.1553 o2         1 CLA     -0.558200
     31 C2         82.3354   54.7711   35.4509 c8         1 CLA     -0.325100
     32 C2A        79.7972   58.5335   36.2461 a1         1 CLA      0.098600
     33 C2B        80.3194   62.0108   41.4786 cb         1 CLA      0.088500
     34 C2C        74.9037   59.7563   43.5714 cb         1 CLA      0.053700
     35 C2D        73.8854   57.4507   37.9755 cb         1 CLA      0.058900
     36 O2A        81.6433   56.6903   34.4237 o1         1 CLA     -0.437200
     37 O2D        77.4438   55.1553   36.1187 o1         1 CLA     -0.357600
     38 C3         83.3265   53.8178   35.4761 c5         1 CLA      0.031200
     39 C3A        80.8122   59.3577   37.1461 a1         1 CLA      0.166800
     40 C3B        79.4580   61.8519   42.6024 cb         1 CLA      0.035000
     41 C3C        73.9481   59.0232   42.8599 cb         1 CLA     -0.089900
     42 C3D        74.9092   57.3731   36.9938 cb         1 CLA     -0.035900
     43 C4         82.9297   52.3609   35.4381 a3         1 CLA     -0.053300
     44 C4A        79.9362   59.9288   38.3006 ac         1 CLA      0.001800
     45 C4B        78.2479   61.2233   42.1220 cn         1 CLA     -0.020900
     46 C4C        74.4725   59.0845   41.4614 cr         1 CLA     -0.044400
     47 C4D        76.0170   57.9592   37.5853 c6         1 CLA     -0.046000
     48 C5         84.7163   54.1666   35.0988 a2         1 CLA     -0.070400
     49 C6         85.4418   55.4454   35.5492 a2         1 CLA      0.043900
     50 C7         85.4831   55.6503   37.0520 a2         1 CLA     -0.150000
     51 C8         86.1545   57.0246   37.5154 a1         1 CLA      0.064200
     52 C9         87.5327   57.2212   36.8643 a3         1 CLA     -0.259300
     53 C10        86.1620   57.0221   39.0655 a2         1 CLA     -0.071900
     54 C11        86.3209   58.4213   39.7298 a2         1 CLA      0.014500
     55 C12        85.7215   58.2864   41.0835 a2         1 CLA     -0.112100
     56 C13        85.8326   59.5090   41.9500 a1         1 CLA      0.089200
     57 C14        87.3317   59.8955   42.2569 a3         1 CLA     -0.239100
     58 C15        85.0558   59.4118   43.3367 a2         1 CLA     -0.102200
     59 C16        83.5897   59.5354   43.3302 a2         1 CLA      0.023900
     60 C17        82.9574   59.2746   44.7096 a2         1 CLA     -0.105700
     61 C18        82.4634   57.8304   45.0885 a1         1 CLA      0.206800
     62 C19        83.4579   56.7333   44.6997 a3         1 CLA     -0.280100
     63 C20        82.1564   57.7380   46.6151 a3         1 CLA     -0.280100
     64 NC         75.6771   59.7955   41.3796 nx         1 CLA     -0.309200
     65 MG         77.1063   59.7117   39.7358 mg         1 CLA      0.895000
     66 HMD3       72.1297   56.2112   38.2159 dc         1 CLA      0.064300
     67 HMD2       71.7315   58.0077   37.9765 dc         1 CLA      0.064300
     68 HMD1       72.3303   56.9924   36.6265 dc         1 CLA      0.064300
     69 HMC3       74.2905   59.4413   45.5978 dc         1 CLA      0.052100
     70 HMC2       75.8926   60.0377   45.5127 dc         1 CLA      0.052100
     71 HMC1       74.7058   61.1253   45.1566 dc         1 CLA      0.052100
     72 HMB3       82.3323   61.6658   41.5318 dc         1 CLA      0.063600
     73 HMB2       81.9776   63.0116   40.5458 dc         1 CLA      0.063600
     74 HMB1       81.8598   63.2605   42.1504 dc         1 CLA      0.063600
     75 HMA3       82.0389   57.6378   37.7820 dc         1 CLA      0.058300
     76 HMA2       82.9131   58.8943   36.8547 dc         1 CLA      0.058300
     77 HMA1       82.3841   59.0912   38.4798 dc         1 CLA      0.058300
     78 HED3       79.3137   54.3967   35.9445 dc         1 CLA      0.079300
     79 HED2       78.1125   53.3571   36.6618 dc         1 CLA      0.079300
     80 HED1       78.0757   53.4517   34.9315 dc         1 CLA      0.079300
     81 HBC3       72.2212   56.0747   43.7177 dc         1 CLA      0.016300
     82 HBC2       73.2269   56.3918   42.1439 dc         1 CLA      0.016300
     83 HBC1       73.9686   56.4700   43.6381 dc         1 CLA      0.016300
     84 HBB2       80.9205   62.4718   45.6962 da         1 CLA      0.183000
     85 HBB1       81.9232   62.0859   44.1743 da         1 CLA      0.183000
     86 HBA2       80.5299   59.4270   32.8662 dc         1 CLA      0.029400
     87 HBA1       81.6391   59.2472   34.1707 dc         1 CLA      0.029400
     88 HAC2       72.6180   58.4540   44.3858 dc         1 CLA      0.029300
     89 HAC1       71.9173   58.4490   42.7013 dc         1 CLA      0.029300
     90 HAA2       78.6866   58.7732   34.3715 dc         1 CLA      0.028700
     91 HAA1       79.5415   60.1324   34.9965 dc         1 CLA      0.028700
     92 H203       83.0469   57.5851   47.1890 dc         1 CLA      0.065600
     93 H202       81.6406   58.5892   46.8849 dc         1 CLA      0.065600
     94 H201       81.5726   56.8277   46.6855 dc         1 CLA      0.065600
     95 H193       83.0671   55.7367   44.9965 dc         1 CLA      0.065600
     96 H192       83.4066   56.6940   43.6436 dc         1 CLA      0.065600
     97 H191       84.4664   56.9457   45.1272 dc         1 CLA      0.065600
     98 H172       83.6514   59.6192   45.5152 dc         1 CLA      0.027600
     99 H171       82.0851   59.8812   44.7716 dc         1 CLA      0.027600
    100 H162       83.3326   60.6218   43.0908 dc         1 CLA      0.002900
    101 H161       83.0181   58.9123   42.6850 dc         1 CLA      0.002900
    102 H152       85.3771   58.4589   43.7309 dc         1 CLA      0.029100
    103 H151       85.4788   60.2114   43.9706 dc         1 CLA      0.029100
    104 H143       87.9805   59.2004   42.7612 dc         1 CLA      0.063600
    105 H142       87.8033   60.0952   41.2978 dc         1 CLA      0.063600
    106 H141       87.3303   60.8744   42.8362 dc         1 CLA      0.063600
    107 H122       84.6719   58.2465   40.8493 dc         1 CLA      0.032500
    108 H121       86.0262   57.4539   41.6128 dc         1 CLA      0.032500
    109 H112       87.3533   58.7484   39.7276 dc         1 CLA      0.006600
    110 H111       85.7649   59.0947   39.1324 dc         1 CLA      0.006600
    111 H102       85.2494   56.5794   39.5189 dc         1 CLA      0.024100
    112 H101       86.9436   56.3815   39.3369 dc         1 CLA      0.024100
    113 HHD        72.8804   58.0179   40.4974 da         1 CLA      0.174300
    114 HHC        77.1466   61.0134   44.0376 da         1 CLA      0.136800
    115 HHB        81.4030   61.2025   38.9713 da         1 CLA      0.138300
    116 HBD        76.8590   58.1255   34.6886 dc         1 CLA      0.107700
    117 HAB        78.7897   62.2558   44.6059 da         1 CLA      0.155200
    118 H93        88.0007   57.8050   37.5802 dc         1 CLA      0.069500
    119 H92        88.1331   56.3014   36.7609 dc         1 CLA      0.069500
    120 H91        87.4761   57.7123   35.8887 dc         1 CLA      0.069500
    121 H8         85.4170   57.8090   37.2527 dc         1 CLA      0.029300
    122 H72        84.4240   55.6312   37.4190 dc         1 CLA      0.044400
    123 H71        85.9691   54.8494   37.5643 dc         1 CLA      0.044400
    124 H62        86.4054   55.2848   35.1915 dc         1 CLA      0.015600
    125 H61        85.0927   56.2813   34.9989 dc         1 CLA      0.015600
    126 H52        85.3911   53.3015   35.3245 dc         1 CLA      0.033200
    127 H51        84.7609   54.1845   34.0170 dc         1 CLA      0.033200
    128 H43        82.9476   51.9361   36.4419 dc         1 CLA      0.037000
    129 H42        81.9171   52.2567   35.0467 dc         1 CLA      0.037000
    130 H41        83.6790   51.8589   34.8042 dc         1 CLA      0.037000
    131 H3A        81.0909   60.2059   36.4425 dc         1 CLA      0.041100
    132 H2A        80.1567   57.5459   36.2977 dc         1 CLA      0.083100
    133 H2         82.2945   55.3312   36.3501 da         1 CLA      0.180900
    134 H18        81.6341   57.5936   44.5075 dc         1 CLA     -0.003900
    135 H13        85.4121   60.3763   41.3979 dc         1 CLA      0.019700
    136 H12        80.8252   54.7178   34.0776 dc         1 CLA      0.120400
    137 H11        82.3039   55.0183   33.2154 dc         1 CLA      0.120400
    138 C1         69.4636   62.1718   50.8428 Z1         2 LUT      0.509236
    139 C2         68.0490   61.9037   51.4441 Z2         2 LUT     -0.434695
    140 C3         67.2551   63.1951   51.7846 Z3         2 LUT      0.437453
    141 O3         67.3931   63.5299   53.1421 S1         2 LUT     -0.547129
    142 C4         67.6823   64.4769   50.9712 Z4         2 LUT     -0.468603
    143 C5         68.5669   64.2374   49.7760 Z5         2 LUT      0.279246
    144 C6         69.4857   63.2264   49.6940 Z6         2 LUT     -0.305473
    145 C7         69.9348   62.6731   48.3450 Z7         2 LUT      0.069402
    146 C8         71.0123   63.0053   47.7010 Z8         2 LUT     -0.191631
    147 C9         71.2976   62.6566   46.3603 Z9         2 LUT      0.196698
    148 C10        72.3486   63.3125   45.7576 Y1         2 LUT     -0.208611
    149 C11        72.8989   63.1409   44.3709 Y2         2 LUT      0.030784
    150 C12        74.0098   63.9086   43.9935 Y3         2 LUT     -0.220316
    151 C13        74.7608   63.9684   42.7987 Y4         2 LUT      0.215937
    152 C14        76.0544   64.5228   42.8759 Y5         2 LUT     -0.185793
    153 C15        77.0732   64.6243   41.8971 Y6         2 LUT     -0.057835
    154 C16        69.8700   60.7115   50.4341 Y7         2 LUT     -0.405615
    155 C17        70.4709   62.7247   51.9008 Y7         2 LUT     -0.405615
    156 C18        68.0144   64.8361   48.5317 Y9         2 LUT     -0.369639
    157 C19        70.6314   61.4521   45.7352 W1         2 LUT     -0.333362
    158 C20        74.3088   63.0661   41.6712 W2         2 LUT     -0.323439
    159 C21        88.2085   66.5115   35.5634 Z1         2 LUT      0.406104
    160 C22        88.7700   65.9127   34.2269 Z2         2 LUT     -0.404965
    161 C23        88.6987   66.6872   32.9407 Z3         2 LUT      0.391255
    162 O23        88.7929   65.7650   31.8065 S1         2 LUT     -0.528210
    163 C24        87.4025   67.4481   32.9149 W6         2 LUT     -0.258361
    164 C25        86.4579   67.4663   33.8641 Z5         2 LUT      0.133546
    165 C26        86.7049   66.7167   35.2359 W8         2 LUT     -0.147008
    166 C27        85.9210   67.3653   36.3878 Z7         2 LUT      0.023843
    167 C28        84.9471   66.7914   37.0670 Z8         2 LUT     -0.216987
    168 C29        84.2838   67.2266   38.2607 Z9         2 LUT      0.206524
    169 C30        83.1488   66.4895   38.5909 Y1         2 LUT     -0.215556
    170 C31        82.4483   66.5768   39.8005 Y2         2 LUT      0.025142
    171 C32        81.2556   65.9234   39.9809 Y3         2 LUT     -0.212209
    172 C33        80.4345   65.9038   41.2061 Y4         2 LUT      0.240937
    173 C34        79.2712   65.2259   41.1934 Y5         2 LUT     -0.218862
    174 C35        78.2840   65.2232   42.2016 Y6         2 LUT     -0.023547
    175 C36        89.0573   67.7356   35.7580 Y7         2 LUT     -0.393485
    176 C37        88.5427   65.3932   36.6451 Y7         2 LUT     -0.393485
    177 C38        85.1092   68.0201   33.5357 Y9         2 LUT     -0.387526
    178 C39        84.8316   68.3470   39.1044 W1         2 LUT     -0.322618
    179 C40        80.8204   66.9963   42.1188 W2         2 LUT     -0.358472
    180 H403       80.2306   67.0577   43.0111 R7         2 LUT      0.097720
    181 H402       81.7613   66.8631   42.5757 R7         2 LUT      0.097720
    182 H401       80.8274   68.0584   41.6263 R7         2 LUT      0.097720
    183 H393       85.9100   68.4236   39.0770 R4         2 LUT      0.082505
    184 H392       84.6645   69.3434   38.6510 R4         2 LUT      0.082505
    185 H391       84.5072   68.3843   40.0799 R4         2 LUT      0.082505
    186 H383       85.2919   68.9765   33.0842 R1         2 LUT      0.104030
    187 H382       84.6456   67.3906   32.7418 R1         2 LUT      0.104030
    188 H381       84.5153   68.0818   34.3869 R1         2 LUT      0.104030
    189 H373       88.4738   65.7485   37.6524 T4         2 LUT      0.089537
    190 H372       87.9893   64.5408   36.5072 T4         2 LUT      0.089537
    191 H371       89.5910   65.0696   36.5591 T4         2 LUT      0.089537
    192 H363       88.8368   68.2454   36.7167 T4         2 LUT      0.089537
    193 H362       90.1377   67.5252   35.7766 T4         2 LUT      0.089537
    194 H361       88.7477   68.4097   34.9543 T4         2 LUT      0.089537
    195 H222       89.8591   65.6734   34.3352 U2         2 LUT      0.127376
    196 H221       88.2623   65.0244   34.0561 U2         2 LUT      0.127376
    197 H203       73.5630   63.6572   41.1628 R7         2 LUT      0.087068
    198 H202       75.2146   62.9998   41.0435 R7         2 LUT      0.087068
    199 H201       73.8698   62.1078   41.9073 R7         2 LUT      0.087068
    200 H193       71.1100   61.1992   44.8257 R4         2 LUT      0.089716
    201 H192       70.6736   60.6236   46.4710 R4         2 LUT      0.089716
    202 H191       69.6000   61.5792   45.4494 R4         2 LUT      0.089716
    203 H183       67.4090   65.7432   48.7825 R1         2 LUT      0.094572
    204 H182       68.8350   65.0514   47.9081 R1         2 LUT      0.094572
    205 H181       67.2724   64.1946   48.0529 R1         2 LUT      0.094572
    206 H173       71.4931   62.4680   51.7841 T4         2 LUT      0.093752
    207 H172       70.3840   63.7548   52.0995 T4         2 LUT      0.093752
    208 H171       70.2030   62.2426   52.8534 T4         2 LUT      0.093752
    209 H163       69.3027   60.2408   49.6486 T4         2 LUT      0.093752
    210 H162       70.9665   60.7035   50.2249 T4         2 LUT      0.093752
    211 H161       69.8080   60.0064   51.3130 T4         2 LUT      0.093752
    212 HO3        67.0053   62.8361   53.7406 Q1         2 LUT      0.300121
    213 H8         71.6290   63.7368   48.1816 U7         2 LUT      0.080784
    214 H7         69.0901   62.0049   47.9087 U6         2 LUT      0.042190
    215 H42        66.7365   65.0055   50.6508 U5         2 LUT      0.145166
    216 H41        68.1462   65.1862   51.6508 U5         2 LUT      0.145166
    217 H35        78.4554   65.7093   43.1650 T3         2 LUT      0.077919
    218 H34        79.1599   64.5775   40.2914 T2         2 LUT      0.073626
    219 H32        80.8886   65.3329   39.1311 T1         2 LUT      0.092510
    220 H31        82.8391   67.2684   40.5607 U9         2 LUT      0.070048
    221 H30        82.8780   65.6516   37.8586 U8         2 LUT      0.085442
    222 H3         66.2300   63.1949   51.6054 U3         2 LUT     -0.031596
    223 H28        84.4738   65.9757   36.5156 U7         2 LUT      0.084728
    224 H27        86.4295   68.2898   36.7522 U6         2 LUT      0.087291
    225 H26        86.1521   65.8645   35.0490 Q6         2 LUT      0.075325
    226 H24        87.0665   67.8635   31.9482 Q5         2 LUT      0.094482
    227 H23        89.4899   67.4651   33.0896 U3         2 LUT     -0.024869
    228 H22        67.4931   61.4868   50.6712 U2         2 LUT      0.127376
    229 H21        68.0525   61.1580   52.2485 U2         2 LUT      0.127376
    230 H15        76.9173   64.2289   40.8194 T3         2 LUT      0.093200
    231 H14        76.4976   64.9182   43.7987 T2         2 LUT      0.068865
    232 H12        74.4456   64.5250   44.7919 T1         2 LUT      0.095507
    233 H11        72.3397   62.5631   43.6326 U9         2 LUT      0.068930
    234 H10        72.7737   64.1738   46.2053 U8         2 LUT      0.083911
    235 H1         88.8189   66.1942   30.9629 Q1         2 LUT      0.297311
@<TRIPOS>BOND
    1     6     1 1
    2     7     2 1
    3     8     3 1
    4     9     4 1
    5    11     4 1
    6    12     6 1
    7    13     9 1
    8    16     9 1
    9    25     5 1
   10    25    16 1
   11    26    10 1
   12    26    17 1
   13    27    18 1
   14    28    14 1
   15    28    19 1
   16    29    12 1
   17    30    13 1
   18    31    24 1
   19    32     1 1
   20    32    25 1
   21    33    21 1
   22    33    26 1
   23    34    22 1
   24    34    27 1
   25    35    23 1
   26    35    28 1
   27    36    12 1
   28    36    24 1
   29    37    13 1
   30    37    15 1
   31    38    31 1
   32    39    20 1
   33    39    32 1
   34    40     2 1
   35    40    33 1
   36    41     3 1
   37    41    34 1
   38    42     4 1
   39    42    35 1
   40    43    38 1
   41    44     5 1
   42    44    17 1
   43    44    39 1
   44    45    10 1
   45    45    18 1
   46    45    40 1
   47    46    19 1
   48    46    41 1
   49    47    14 1
   50    47    16 1
   51    47    42 1
   52    48    38 1
   53    49    48 1
   54    50    49 1
   55    51    50 1
   56    52    51 1
   57    53    51 1
   58    54    53 1
   59    55    54 1
   60    56    55 1
   61    57    56 1
   62    58    56 1
   63    59    58 1
   64    60    59 1
   65    61    60 1
   66    62    61 1
   67    63    61 1
   68    64    27 1
   69    64    46 1
   70    65     5 1
   71    65    10 1
   72    65    64 1
   73    65    14 1
   74    66    23 1
   75    67    23 1
   76    68    23 1
   77    69    22 1
   78    70    22 1
   79    71    22 1
   80    72    21 1
   81    73    21 1
   82    74    21 1
   83    75    20 1
   84    76    20 1
   85    77    20 1
   86    78    15 1
   87    79    15 1
   88    80    15 1
   89    81     8 1
   90    82     8 1
   91    83     8 1
   92    84     7 1
   93    85     7 1
   94    86     6 1
   95    87     6 1
   96    88     3 1
   97    89     3 1
   98    90     1 1
   99    91     1 1
  100    92    63 1
  101    93    63 1
  102    94    63 1
  103    95    62 1
  104    96    62 1
  105    97    62 1
  106    98    60 1
  107    99    60 1
  108   100    59 1
  109   101    59 1
  110   102    58 1
  111   103    58 1
  112   104    57 1
  113   105    57 1
  114   106    57 1
  115   107    55 1
  116   108    55 1
  117   109    54 1
  118   110    54 1
  119   111    53 1
  120   112    53 1
  121   113    19 1
  122   114    18 1
  123   115    17 1
  124   116     9 1
  125   117     2 1
  126   118    52 1
  127   119    52 1
  128   120    52 1
  129   121    51 1
  130   122    50 1
  131   123    50 1
  132   124    49 1
  133   125    49 1
  134   126    48 1
  135   127    48 1
  136   128    43 1
  137   129    43 1
  138   130    43 1
  139   131    39 1
  140   132    32 1
  141   133    31 1
  142   134    61 1
  143   135    56 1
  144   136    24 1
  145   137    24 1
  146   139   138 1
  147   140   139 1
  148   141   140 1
  149   142   140 1
  150   143   142 1
  151   144   138 1
  152   144   143 1
  153   145   144 1
  154   146   145 1
  155   147   146 1
  156   148   147 1
  157   149   148 1
  158   150   149 1
  159   151   150 1
  160   152   151 1
  161   153   152 1
  162   154   138 1
  163   155   138 1
  164   156   143 1
  165   157   147 1
  166   158   151 1
  167   160   159 1
  168   161   160 1
  169   162   161 1
  170   163   161 1
  171   164   163 1
  172   165   159 1
  173   165   164 1
  174   166   165 1
  175   167   166 1
  176   168   167 1
  177   169   168 1
  178   170   169 1
  179   171   170 1
  180   172   171 1
  181   173   172 1
  182   174   153 1
  183   174   173 1
  184   175   159 1
  185   176   159 1
  186   177   164 1
  187   178   168 1
  188   179   172 1
  189   180   179 1
  190   181   179 1
  191   182   179 1
  192   183   178 1
  193   184   178 1
  194   185   178 1
  195   186   177 1
  196   187   177 1
  197   188   177 1
  198   189   176 1
  199   190   176 1
  200   191   176 1
  201   192   175 1
  202   193   175 1
  203   194   175 1
  204   195   160 1
  205   196   160 1
  206   197   158 1
  207   198   158 1
  208   199   158 1
  209   200   157 1
  210   201   157 1
  211   202   157 1
  212   203   156 1
  213   204   156 1
  214   205   156 1
  215   206   155 1
  216   207   155 1
  217   208   155 1
  218   209   154 1
  219   210   154 1
  220   211   154 1
  221   212   141 1
  222   213   146 1
  223   214   145 1
  224   215   142 1
  225   216   142 1
  226   217   174 1
  227   218   173 1
  228   219   171 1
  229   220   170 1
  230   221   169 1
  231   222   140 1
  232   223   167 1
  233   224   166 1
  234   225   165 1
  235   226   163 1
  236   227   161 1
  237   228   139 1
  238   229   139 1
  239   230   153 1
  240   231   152 1
  241   232   150 1
  242   233   149 1
  243   234   148 1
  244   235   162 1
  245   65    153 1
  246   65    174 1
@<TRIPOS>SUBSTRUCTURE
      1 CLA               1 ****               0 ****  **** 
      2 LUT             138 ****               0 ****  **** 
