@<TRIPOS>MOLECULE
Cpptraj generated mol2 file.
  235   246     2     0     0
SMALL
USER_CHARGES


@<TRIPOS>ATOM
      1 CAA        78.0872   58.6120   33.7768 a2         1 CLA     -0.055900
      2 CAB        78.9631   62.1635   42.7697 c8         1 CLA     -0.148500
      3 CAC        72.0237   58.6932   42.8665 a2         1 CLA     -0.012600
      4 CAD        73.9410   56.1309   35.3399 ck         1 CLA      0.398800
      5 NA         77.5512   58.7656   37.3194 ns         1 CLA     -0.225500
      6 CBA        79.2499   58.4733   32.8086 a2         1 CLA     -0.135000
      7 CBB        80.1028   62.2081   43.4731 c0         1 CLA     -0.395200
      8 CBC        72.0690   57.1374   43.0977 a3         1 CLA     -0.037700
      9 CBD        75.4433   56.4664   34.9071 a1         1 CLA     -0.053900
     10 NB         77.7524   60.4121   39.8221 nm         1 CLA     -0.295700
     11 OBD        73.1563   55.5841   34.5552 o2         1 CLA     -0.494600
     12 CGA        79.7078   57.0313   32.4426 c4         1 CLA      0.827000
     13 CGD        76.2977   55.2674   34.6053 c4         1 CLA      0.655300
     14 ND         74.7301   57.9305   38.1742 nm         1 CLA     -0.291600
     15 CED        77.0474   53.1707   35.1701 a3         1 CLA      0.005400
     16 CHA        75.9819   57.3503   36.0407 cs         1 CLA     -0.123800
     17 CHB        79.4739   60.0916   38.2058 aa         1 CLA     -0.291900
     18 CHC        76.5034   60.7341   41.9556 aa         1 CLA     -0.090400
     19 CHD        73.0174   58.0201   39.9419 aa         1 CLA     -0.052000
     20 CMA        80.6644   57.7323   36.2860 a3         1 CLA     -0.230700
     21 CMB        81.1685   61.7217   40.1967 a3         1 CLA     -0.180800
     22 CMC        74.3151   60.4725   44.2525 a3         1 CLA     -0.134000
     23 CMD        71.3244   56.5034   37.5495 a3         1 CLA     -0.141100
     24 C1         80.5457   55.0701   33.3581 a2         1 CLA      0.023000
     25 C1A        77.2550   58.0706   36.2137 ac         1 CLA     -0.015100
     26 C1B        78.9672   60.6895   39.3516 cr         1 CLA      0.054700
     27 C1C        75.2701   60.0061   41.7263 cn         1 CLA     -0.005600
     28 C1D        73.4524   57.6143   38.6628 ap         1 CLA     -0.047300
     29 O1A        79.7421   56.5905   31.2916 o2         1 CLA     -0.610800
     30 O1D        77.0286   55.2931   33.6093 o2         1 CLA     -0.558200
     31 C2         81.1881   54.6259   34.6540 c8         1 CLA     -0.325100
     32 C2A        78.4150   58.0045   35.1968 a1         1 CLA      0.098600
     33 C2B        79.7458   61.4001   40.3329 cb         1 CLA      0.088500
     34 C2C        74.2726   59.9794   42.7417 cb         1 CLA      0.053700
     35 C2D        72.7557   56.8359   37.6795 cb         1 CLA      0.058900
     36 O2A        80.1294   56.4981   33.5369 o1         1 CLA     -0.437200
     37 O2D        76.1137   54.2093   35.4408 o1         1 CLA     -0.357600
     38 C3         82.0727   53.6443   34.7179 c5         1 CLA      0.031200
     39 C3A        79.5015   58.7007   36.0073 a1         1 CLA      0.166800
     40 C3B        78.8543   61.5749   41.4453 cb         1 CLA      0.035000
     41 C3C        73.2721   59.1726   42.1775 cb         1 CLA     -0.089900
     42 C3D        73.7737   56.6575   36.7156 cb         1 CLA     -0.035900
     43 C4         81.7344   52.0873   34.8702 a3         1 CLA     -0.053300
     44 C4A        78.8337   59.1950   37.2853 ac         1 CLA      0.001800
     45 C4B        77.6177   60.9218   41.0969 cn         1 CLA     -0.020900
     46 C4C        73.7240   58.7875   40.8269 cr         1 CLA     -0.044400
     47 C4D        74.9185   57.3748   37.0323 c6         1 CLA     -0.046000
     48 C5         83.6233   53.9886   34.4977 a2         1 CLA     -0.070400
     49 C6         83.9729   55.3849   34.8420 a2         1 CLA      0.043900
     50 C7         83.9008   55.5746   36.3915 a2         1 CLA     -0.150000
     51 C8         84.2559   57.0296   36.8324 a1         1 CLA      0.064200
     52 C9         85.4912   57.5370   36.2438 a3         1 CLA     -0.259300
     53 C10        84.4222   57.0667   38.4203 a2         1 CLA     -0.071900
     54 C11        83.2388   56.8911   39.2753 a2         1 CLA      0.014500
     55 C12        83.4784   57.3103   40.7502 a2         1 CLA     -0.112100
     56 C13        82.2837   56.8302   41.6734 a1         1 CLA      0.089200
     57 C14        80.9619   57.4181   41.3666 a3         1 CLA     -0.239100
     58 C15        82.6375   56.9960   43.2152 a2         1 CLA     -0.102200
     59 C16        82.8022   58.3561   43.9181 a2         1 CLA      0.023900
     60 C17        83.4633   58.2981   45.3278 a2         1 CLA     -0.105700
     61 C18        83.6645   59.7045   45.9697 a1         1 CLA      0.206800
     62 C19        82.3120   60.5338   46.1706 a3         1 CLA     -0.280100
     63 C20        84.5580   59.7193   47.2097 a3         1 CLA     -0.280100
     64 NC         74.9510   59.3706   40.6070 nx         1 CLA     -0.309200
     65 MG         76.1760   59.1843   38.9964 mg         1 CLA      0.895000
     66 HMD3       70.8945   56.0653   38.4813 dc         1 CLA      0.064300
     67 HMD2       70.7423   57.3065   37.0852 dc         1 CLA      0.064300
     68 HMD1       71.2252   55.6298   36.8968 dc         1 CLA      0.064300
     69 HMC3       74.0764   59.6085   44.8799 dc         1 CLA      0.052100
     70 HMC2       75.2701   60.8524   44.5237 dc         1 CLA      0.052100
     71 HMC1       73.6115   61.3146   44.3588 dc         1 CLA      0.052100
     72 HMB3       81.5205   62.5039   40.9016 dc         1 CLA      0.063600
     73 HMB2       81.7024   60.8232   40.3883 dc         1 CLA      0.063600
     74 HMB1       81.3094   61.9748   39.1371 dc         1 CLA      0.063600
     75 HMA3       81.3049   58.3185   36.9155 dc         1 CLA      0.058300
     76 HMA2       80.2739   56.8395   36.6782 dc         1 CLA      0.058300
     77 HMA1       81.2077   57.6305   35.3304 dc         1 CLA      0.058300
     78 HED3       77.0261   52.8393   34.1261 dc         1 CLA      0.079300
     79 HED2       78.0660   53.4279   35.4925 dc         1 CLA      0.079300
     80 HED1       76.6663   52.3276   35.8284 dc         1 CLA      0.079300
     81 HBC3       72.7623   56.8272   43.9538 dc         1 CLA      0.016300
     82 HBC2       71.0578   56.8169   43.4171 dc         1 CLA      0.016300
     83 HBC1       72.3973   56.5749   42.2231 dc         1 CLA      0.016300
     84 HBB2       80.2220   62.7350   44.4848 da         1 CLA      0.183000
     85 HBB1       81.0985   61.9592   43.1483 da         1 CLA      0.183000
     86 HBA2       78.9986   58.9454   31.8617 dc         1 CLA      0.029400
     87 HBA1       80.0324   59.1395   33.1413 dc         1 CLA      0.029400
     88 HAC2       71.9863   59.1688   43.8860 dc         1 CLA      0.029300
     89 HAC1       71.1841   58.9059   42.2542 dc         1 CLA      0.029300
     90 HAA2       77.2567   58.0481   33.3726 dc         1 CLA      0.028700
     91 HAA1       77.6810   59.5858   33.9418 dc         1 CLA      0.028700
     92 H203       85.2817   58.9232   47.0368 dc         1 CLA      0.065600
     93 H202       85.0278   60.6771   47.2145 dc         1 CLA      0.065600
     94 H201       84.0277   59.5677   48.1773 dc         1 CLA      0.065600
     95 H193       82.6100   61.4947   46.4971 dc         1 CLA      0.065600
     96 H192       81.7702   60.5598   45.1774 dc         1 CLA      0.065600
     97 H191       81.7065   59.9488   46.8332 dc         1 CLA      0.065600
     98 H172       82.7384   57.8906   45.9938 dc         1 CLA      0.027600
     99 H171       84.4401   57.7031   45.3027 dc         1 CLA      0.027600
    100 H162       83.4934   59.0239   43.3354 dc         1 CLA      0.002900
    101 H161       81.7952   58.8174   43.9411 dc         1 CLA      0.002900
    102 H152       81.9606   56.4717   43.8567 dc         1 CLA      0.029100
    103 H151       83.6281   56.5197   43.2876 dc         1 CLA      0.029100
    104 H143       81.0934   58.4580   41.6324 dc         1 CLA      0.063600
    105 H142       80.5943   57.2537   40.3593 dc         1 CLA      0.063600
    106 H141       80.1920   56.9930   42.0034 dc         1 CLA      0.063600
    107 H122       84.3438   56.7448   40.9549 dc         1 CLA      0.032500
    108 H121       83.6106   58.4245   40.8491 dc         1 CLA      0.032500
    109 H112       82.4227   57.5628   38.9962 dc         1 CLA      0.006600
    110 H111       82.9477   55.8674   39.1453 dc         1 CLA      0.006600
    111 H102       85.1130   56.2703   38.8267 dc         1 CLA      0.024100
    112 H101       84.8701   58.0177   38.6660 dc         1 CLA      0.024100
    113 HHD        72.0369   57.5809   40.3197 da         1 CLA      0.174300
    114 HHC        76.6139   61.1491   42.9425 da         1 CLA      0.136800
    115 HHB        80.4844   60.3683   37.9322 da         1 CLA      0.138300
    116 HBD        75.2649   57.0328   34.0121 dc         1 CLA      0.107700
    117 HAB        78.1145   62.5898   43.2289 da         1 CLA      0.155200
    118 H93        85.2986   57.6526   35.1643 dc         1 CLA      0.069500
    119 H92        85.6358   58.5859   36.4901 dc         1 CLA      0.069500
    120 H91        86.3945   56.9302   36.3740 dc         1 CLA      0.069500
    121 H8         83.4444   57.6793   36.5043 dc         1 CLA      0.029300
    122 H72        82.9008   55.4256   36.6882 dc         1 CLA      0.044400
    123 H71        84.6560   54.8577   36.8194 dc         1 CLA      0.044400
    124 H62        84.9044   55.6335   34.4382 dc         1 CLA      0.015600
    125 H61        83.3079   56.0380   34.2729 dc         1 CLA      0.015600
    126 H52        84.2472   53.3352   35.0933 dc         1 CLA      0.033200
    127 H51        84.0212   53.7412   33.5101 dc         1 CLA      0.033200
    128 H43        80.6900   51.9551   34.6241 dc         1 CLA      0.037000
    129 H42        82.3063   51.5397   34.1000 dc         1 CLA      0.037000
    130 H41        82.0083   51.7468   35.8668 dc         1 CLA      0.037000
    131 H3A        79.8748   59.5380   35.5092 dc         1 CLA      0.041100
    132 H2A        78.6352   56.9279   35.1510 dc         1 CLA      0.083100
    133 H2         81.0171   55.2948   35.4812 da         1 CLA      0.180900
    134 H18        84.2518   60.3449   45.3173 dc         1 CLA     -0.003900
    135 H13        82.1085   55.7609   41.5649 dc         1 CLA      0.019700
    136 H12        79.5377   54.6199   33.3810 dc         1 CLA      0.120400
    137 H11        81.1528   54.7552   32.4972 dc         1 CLA      0.120400
    138 C1         68.5796   60.7186   49.4078 Z1         2 LUT      0.509236
    139 C2         68.2554   61.3810   50.7500 Z2         2 LUT     -0.434695
    140 C3         66.7356   61.5898   50.9882 Z3         2 LUT      0.437453
    141 O3         66.5172   62.1920   52.2529 S1         2 LUT     -0.547129
    142 C4         66.2011   62.4350   49.9145 Z4         2 LUT     -0.468603
    143 C5         66.8442   62.3258   48.5255 Z5         2 LUT      0.279246
    144 C6         67.8045   61.4060   48.2319 Z6         2 LUT     -0.305473
    145 C7         68.4479   61.4079   46.9020 Z7         2 LUT      0.069402
    146 C8         69.4590   62.1773   46.4110 Z8         2 LUT     -0.191631
    147 C9         70.0574   61.9897   45.0883 Z9         2 LUT      0.196698
    148 C10        70.8717   62.9496   44.5735 Y1         2 LUT     -0.208611
    149 C11        71.6207   62.9668   43.3288 Y2         2 LUT      0.030784
    150 C12        72.6989   63.7715   43.1273 Y3         2 LUT     -0.220316
    151 C13        73.6217   63.6320   41.9968 Y4         2 LUT      0.215937
    152 C14        74.7997   64.3632   42.0337 Y5         2 LUT     -0.185793
    153 C15        75.7813   64.3653   40.9870 Y6         2 LUT     -0.057835
    154 C16        67.9519   59.2894   49.5091 Y7         2 LUT     -0.405615
    155 C17        70.0273   60.4922   49.2266 Y7         2 LUT     -0.405615
    156 C18        66.3168   63.3484   47.5678 Y9         2 LUT     -0.369639
    157 C19        69.6459   60.7890   44.2631 W1         2 LUT     -0.333362
    158 C20        73.1234   62.8280   40.8074 W2         2 LUT     -0.323439
    159 C21        87.4002   65.6329   35.3853 Z1         2 LUT      0.406104
    160 C22        88.1561   64.6868   34.3711 Z2         2 LUT     -0.404965
    161 C23        88.4863   65.3876   33.0449 Z3         2 LUT      0.391255
    162 O23        89.1026   64.4626   32.0777 S1         2 LUT     -0.528210
    163 C24        87.2502   66.1633   32.6277 W6         2 LUT     -0.258361
    164 C25        86.1428   66.3965   33.2977 Z5         2 LUT      0.133546
    165 C26        85.9275   65.8607   34.6831 W8         2 LUT     -0.147008
    166 C27        85.0870   66.7465   35.5765 Z7         2 LUT      0.023843
    167 C28        84.1048   66.1934   36.3423 Z8         2 LUT     -0.216987
    168 C29        83.3343   66.7096   37.5034 Z9         2 LUT      0.206524
    169 C30        82.2679   65.9659   37.9602 Y1         2 LUT     -0.215556
    170 C31        81.3534   66.2400   39.0333 Y2         2 LUT      0.025142
    171 C32        80.3630   65.3724   39.4186 Y3         2 LUT     -0.212209
    172 C33        79.3761   65.5531   40.4471 Y4         2 LUT      0.240937
    173 C34        78.1525   64.9054   40.3868 Y5         2 LUT     -0.218862
    174 C35        76.9285   65.0359   41.1811 Y6         2 LUT     -0.023547
    175 C36        88.1245   66.9982   35.7007 Y7         2 LUT     -0.393485
    176 C37        87.3202   64.8228   36.6764 Y7         2 LUT     -0.393485
    177 C38        85.1295   67.2703   32.6665 Y9         2 LUT     -0.387526
    178 C39        83.7859   68.0813   37.9324 W1         2 LUT     -0.322618
    179 C40        79.8333   66.7319   41.3387 W2         2 LUT     -0.358472
    180 H403       80.6655   66.6020   41.9697 R7         2 LUT      0.097720
    181 H402       79.8379   67.7071   40.8169 R7         2 LUT      0.097720
    182 H401       79.0210   67.0424   42.0231 R7         2 LUT      0.097720
    183 H393       84.8261   68.0897   38.3168 R4         2 LUT      0.082505
    184 H392       83.8162   68.7535   37.1370 R4         2 LUT      0.082505
    185 H391       83.0920   68.4261   38.6905 R4         2 LUT      0.082505
    186 H383       84.2602   66.6637   32.6701 R1         2 LUT      0.104030
    187 H382       84.9637   68.1242   33.3056 R1         2 LUT      0.104030
    188 H381       85.3120   67.5608   31.5971 R1         2 LUT      0.104030
    189 H373       88.3041   64.8653   37.1518 T4         2 LUT      0.089537
    190 H372       86.6328   65.1660   37.3862 T4         2 LUT      0.089537
    191 H371       87.0196   63.7979   36.5191 T4         2 LUT      0.089537
    192 H363       89.1124   66.8196   36.1248 T4         2 LUT      0.089537
    193 H362       88.1613   67.6533   34.7929 T4         2 LUT      0.089537
    194 H361       87.4946   67.5686   36.4569 T4         2 LUT      0.089537
    195 H222       89.1264   64.3180   34.8081 U2         2 LUT      0.127376
    196 H221       87.5540   63.8382   34.1416 U2         2 LUT      0.127376
    197 H203       73.2790   61.7675   40.8661 R7         2 LUT      0.087068
    198 H202       72.0852   62.9409   40.6966 R7         2 LUT      0.087068
    199 H201       73.5878   63.0760   39.8809 R7         2 LUT      0.087068
    200 H193       69.9934   60.7905   43.2586 R4         2 LUT      0.089716
    201 H192       69.8479   59.8183   44.6835 R4         2 LUT      0.089716
    202 H191       68.6311   60.6474   44.1058 R4         2 LUT      0.089716
    203 H183       66.3248   63.0791   46.5056 R1         2 LUT      0.094572
    204 H182       65.3155   63.7005   47.9416 R1         2 LUT      0.094572
    205 H181       66.9382   64.2611   47.5801 R1         2 LUT      0.094572
    206 H173       70.3048   59.8184   48.3972 T4         2 LUT      0.093752
    207 H172       70.5210   61.4625   49.0867 T4         2 LUT      0.093752
    208 H171       70.4315   60.0011   50.1057 T4         2 LUT      0.093752
    209 H163       67.8226   58.9163   48.4842 T4         2 LUT      0.093752
    210 H162       68.5597   58.4716   50.0197 T4         2 LUT      0.093752
    211 H161       66.9867   59.1002   49.9235 T4         2 LUT      0.093752
    212 HO3        66.7567   61.6133   53.0031 Q1         2 LUT      0.300121
    213 H8         69.8652   62.9080   47.0147 U7         2 LUT      0.080784
    214 H7         67.9821   60.7395   46.1215 U6         2 LUT      0.042190
    215 H42        65.0985   62.3476   49.8878 U5         2 LUT      0.145166
    216 H41        66.3914   63.5312   50.2069 U5         2 LUT      0.145166
    217 H35        77.0375   65.5970   42.0046 T3         2 LUT      0.077919
    218 H34        78.1234   64.1114   39.6201 T2         2 LUT      0.073626
    219 H32        80.2915   64.4486   38.8722 T1         2 LUT      0.092510
    220 H31        81.5350   67.1369   39.5825 U9         2 LUT      0.070048
    221 H30        82.0543   65.0477   37.4303 U8         2 LUT      0.085442
    222 H3         66.2601   60.6646   50.8751 U3         2 LUT     -0.031596
    223 H28        83.6543   65.3661   35.8434 U7         2 LUT      0.084728
    224 H27        85.3146   67.7229   35.9084 U6         2 LUT      0.087291
    225 H26        85.4832   64.9116   34.2570 Q6         2 LUT      0.075325
    226 H24        87.3329   66.7306   31.6975 Q5         2 LUT      0.094482
    227 H23        89.2974   66.1034   33.2836 U3         2 LUT     -0.024869
    228 H22        68.7254   60.8512   51.5963 U2         2 LUT      0.127376
    229 H21        68.7146   62.3695   50.6636 U2         2 LUT      0.127376
    230 H15        75.7778   63.6972   40.1166 T3         2 LUT      0.093200
    231 H14        75.0514   64.9817   42.9145 T2         2 LUT      0.068865
    232 H12        72.7541   64.5962   43.8280 T1         2 LUT      0.095507
    233 H11        71.4225   62.2348   42.5773 U9         2 LUT      0.068930
    234 H10        71.0573   63.7710   45.2485 U8         2 LUT      0.083911
    235 H1         88.3984   64.2455   31.4009 Q1         2 LUT      0.297311
@<TRIPOS>BOND
    1     6     1 1
    2     7     2 1
    3     8     3 1
    4     9     4 1
    5    11     4 1
    6    12     6 1
    7    13     9 1
    8    16     9 1
    9    25     5 1
   10    25    16 1
   11    26    10 1
   12    26    17 1
   13    27    18 1
   14    28    14 1
   15    28    19 1
   16    29    12 1
   17    30    13 1
   18    31    24 1
   19    32     1 1
   20    32    25 1
   21    33    21 1
   22    33    26 1
   23    34    22 1
   24    34    27 1
   25    35    23 1
   26    35    28 1
   27    36    12 1
   28    36    24 1
   29    37    13 1
   30    37    15 1
   31    38    31 1
   32    39    20 1
   33    39    32 1
   34    40     2 1
   35    40    33 1
   36    41     3 1
   37    41    34 1
   38    42     4 1
   39    42    35 1
   40    43    38 1
   41    44     5 1
   42    44    17 1
   43    44    39 1
   44    45    10 1
   45    45    18 1
   46    45    40 1
   47    46    19 1
   48    46    41 1
   49    47    14 1
   50    47    16 1
   51    47    42 1
   52    48    38 1
   53    49    48 1
   54    50    49 1
   55    51    50 1
   56    52    51 1
   57    53    51 1
   58    54    53 1
   59    55    54 1
   60    56    55 1
   61    57    56 1
   62    58    56 1
   63    59    58 1
   64    60    59 1
   65    61    60 1
   66    62    61 1
   67    63    61 1
   68    64    27 1
   69    64    46 1
   70    65     5 1
   71    65    10 1
   72    65    64 1
   73    65    14 1
   74    66    23 1
   75    67    23 1
   76    68    23 1
   77    69    22 1
   78    70    22 1
   79    71    22 1
   80    72    21 1
   81    73    21 1
   82    74    21 1
   83    75    20 1
   84    76    20 1
   85    77    20 1
   86    78    15 1
   87    79    15 1
   88    80    15 1
   89    81     8 1
   90    82     8 1
   91    83     8 1
   92    84     7 1
   93    85     7 1
   94    86     6 1
   95    87     6 1
   96    88     3 1
   97    89     3 1
   98    90     1 1
   99    91     1 1
  100    92    63 1
  101    93    63 1
  102    94    63 1
  103    95    62 1
  104    96    62 1
  105    97    62 1
  106    98    60 1
  107    99    60 1
  108   100    59 1
  109   101    59 1
  110   102    58 1
  111   103    58 1
  112   104    57 1
  113   105    57 1
  114   106    57 1
  115   107    55 1
  116   108    55 1
  117   109    54 1
  118   110    54 1
  119   111    53 1
  120   112    53 1
  121   113    19 1
  122   114    18 1
  123   115    17 1
  124   116     9 1
  125   117     2 1
  126   118    52 1
  127   119    52 1
  128   120    52 1
  129   121    51 1
  130   122    50 1
  131   123    50 1
  132   124    49 1
  133   125    49 1
  134   126    48 1
  135   127    48 1
  136   128    43 1
  137   129    43 1
  138   130    43 1
  139   131    39 1
  140   132    32 1
  141   133    31 1
  142   134    61 1
  143   135    56 1
  144   136    24 1
  145   137    24 1
  146   139   138 1
  147   140   139 1
  148   141   140 1
  149   142   140 1
  150   143   142 1
  151   144   138 1
  152   144   143 1
  153   145   144 1
  154   146   145 1
  155   147   146 1
  156   148   147 1
  157   149   148 1
  158   150   149 1
  159   151   150 1
  160   152   151 1
  161   153   152 1
  162   154   138 1
  163   155   138 1
  164   156   143 1
  165   157   147 1
  166   158   151 1
  167   160   159 1
  168   161   160 1
  169   162   161 1
  170   163   161 1
  171   164   163 1
  172   165   159 1
  173   165   164 1
  174   166   165 1
  175   167   166 1
  176   168   167 1
  177   169   168 1
  178   170   169 1
  179   171   170 1
  180   172   171 1
  181   173   172 1
  182   174   153 1
  183   174   173 1
  184   175   159 1
  185   176   159 1
  186   177   164 1
  187   178   168 1
  188   179   172 1
  189   180   179 1
  190   181   179 1
  191   182   179 1
  192   183   178 1
  193   184   178 1
  194   185   178 1
  195   186   177 1
  196   187   177 1
  197   188   177 1
  198   189   176 1
  199   190   176 1
  200   191   176 1
  201   192   175 1
  202   193   175 1
  203   194   175 1
  204   195   160 1
  205   196   160 1
  206   197   158 1
  207   198   158 1
  208   199   158 1
  209   200   157 1
  210   201   157 1
  211   202   157 1
  212   203   156 1
  213   204   156 1
  214   205   156 1
  215   206   155 1
  216   207   155 1
  217   208   155 1
  218   209   154 1
  219   210   154 1
  220   211   154 1
  221   212   141 1
  222   213   146 1
  223   214   145 1
  224   215   142 1
  225   216   142 1
  226   217   174 1
  227   218   173 1
  228   219   171 1
  229   220   170 1
  230   221   169 1
  231   222   140 1
  232   223   167 1
  233   224   166 1
  234   225   165 1
  235   226   163 1
  236   227   161 1
  237   228   139 1
  238   229   139 1
  239   230   153 1
  240   231   152 1
  241   232   150 1
  242   233   149 1
  243   234   148 1
  244   235   162 1
  245   65    153 1
  246   65    174 1
@<TRIPOS>SUBSTRUCTURE
      1 CLA               1 ****               0 ****  **** 
      2 LUT             138 ****               0 ****  **** 
