@<TRIPOS>MOLECULE
Cpptraj generated mol2 file.
  235   246     2     0     0
SMALL
USER_CHARGES


@<TRIPOS>ATOM
      1 CAA        77.3776   57.7510   35.0238 a2         1 CLA     -0.055900
      2 CAB        77.2845   61.6073   43.8682 c8         1 CLA     -0.148500
      3 CAC        70.6766   57.0075   43.6380 a2         1 CLA     -0.012600
      4 CAD        73.2902   54.8629   36.1663 ck         1 CLA      0.398800
      5 NA         76.2645   58.0169   38.4041 ns         1 CLA     -0.225500
      6 CBA        78.5882   57.5748   34.0768 a2         1 CLA     -0.135000
      7 CBB        76.9147   61.0390   45.0373 c0         1 CLA     -0.395200
      8 CBC        70.7343   55.4812   43.3885 a3         1 CLA     -0.037700
      9 CBD        74.7504   55.3922   35.9426 a1         1 CLA     -0.053900
     10 NB         76.0439   59.6941   40.9021 nm         1 CLA     -0.295700
     11 OBD        72.6691   54.0568   35.5059 o2         1 CLA     -0.494600
     12 CGA        79.0380   56.1595   33.7894 c4         1 CLA      0.827000
     13 CGD        75.7113   54.3336   36.0764 c4         1 CLA      0.655300
     14 ND         73.5323   57.0387   38.9617 nm         1 CLA     -0.291600
     15 CED        76.6294   52.6278   37.6215 a3         1 CLA      0.005400
     16 CHA        74.9929   56.4575   37.0131 cs         1 CLA     -0.123800
     17 CHB        78.0260   59.4894   39.3715 aa         1 CLA     -0.291900
     18 CHC        74.7295   60.0758   42.8844 aa         1 CLA     -0.090400
     19 CHD        71.7453   56.8085   40.6918 aa         1 CLA     -0.052000
     20 CMA        79.5685   57.1317   37.9182 a3         1 CLA     -0.230700
     21 CMB        79.3887   61.3781   41.3844 a3         1 CLA     -0.180800
     22 CMC        72.6703   59.2588   45.0482 a3         1 CLA     -0.134000
     23 CMD        70.5349   54.8690   38.5069 a3         1 CLA     -0.141100
     24 C1         80.0392   54.1610   34.7203 a2         1 CLA      0.023000
     25 C1A        76.1462   57.2055   37.2947 ac         1 CLA     -0.015100
     26 C1B        77.3119   60.0319   40.4935 cr         1 CLA      0.054700
     27 C1C        73.6559   59.2030   42.6555 cn         1 CLA     -0.005600
     28 C1D        72.4316   56.3837   39.4521 ap         1 CLA     -0.047300
     29 O1A        78.8272   55.5336   32.8027 o2         1 CLA     -0.610800
     30 O1D        76.4627   53.9237   35.1993 o2         1 CLA     -0.558200
     31 C2         80.7515   53.6793   35.9978 c8         1 CLA     -0.325100
     32 C2A        77.4653   57.2022   36.4682 a1         1 CLA      0.098600
     33 C2B        77.9593   60.8569   41.4869 cb         1 CLA      0.088500
     34 C2C        72.6941   58.8108   43.6082 cb         1 CLA      0.053700
     35 C2D        71.8351   55.5837   38.3972 cb         1 CLA      0.058900
     36 O2A        79.6049   55.5637   34.9195 o1         1 CLA     -0.437200
     37 O2D        75.7768   53.7915   37.3899 o1         1 CLA     -0.357600
     38 C3         81.6243   52.6970   36.1410 c5         1 CLA      0.031200
     39 C3A        78.4255   57.9844   37.3670 a1         1 CLA      0.166800
     40 C3B        77.0427   60.9187   42.5749 cb         1 CLA      0.035000
     41 C3C        71.8939   57.7670   43.0257 cb         1 CLA     -0.089900
     42 C3D        72.8582   55.5206   37.4332 cb         1 CLA     -0.035900
     43 C4         81.2158   51.3451   36.7501 a3         1 CLA     -0.053300
     44 C4A        77.5469   58.5094   38.4673 ac         1 CLA      0.001800
     45 C4B        75.8477   60.2356   42.1306 cn         1 CLA     -0.020900
     46 C4C        72.3153   57.6311   41.6676 cr         1 CLA     -0.044400
     47 C4D        73.8681   56.4272   37.8186 c6         1 CLA     -0.046000
     48 C5         83.1297   53.0667   36.1682 a2         1 CLA     -0.070400
     49 C6         83.5477   54.5602   36.3719 a2         1 CLA      0.043900
     50 C7         83.6063   54.9664   37.8620 a2         1 CLA     -0.150000
     51 C8         84.0805   56.4280   38.2157 a1         1 CLA      0.064200
     52 C9         85.1728   57.0134   37.2695 a3         1 CLA     -0.259300
     53 C10        84.3263   56.5578   39.7128 a2         1 CLA     -0.071900
     54 C11        83.1309   56.4695   40.6479 a2         1 CLA      0.014500
     55 C12        83.2173   57.5193   41.8403 a2         1 CLA     -0.112100
     56 C13        84.4326   57.5250   42.8441 a1         1 CLA      0.089200
     57 C14        84.5588   56.2194   43.6532 a3         1 CLA     -0.239100
     58 C15        84.4931   58.8110   43.7539 a2         1 CLA     -0.102200
     59 C16        83.3991   59.0249   44.7771 a2         1 CLA      0.023900
     60 C17        83.7146   60.2287   45.6215 a2         1 CLA     -0.105700
     61 C18        82.5665   60.9519   46.3628 a1         1 CLA      0.206800
     62 C19        83.1368   62.1054   47.2969 a3         1 CLA     -0.280100
     63 C20        81.4157   61.5390   45.5990 a3         1 CLA     -0.280100
     64 NC         73.4572   58.3907   41.4935 nx         1 CLA     -0.309200
     65 MG         74.7394   58.4274   39.8292 mg         1 CLA      0.895000
     66 HMD3       69.6206   55.4132   38.0793 dc         1 CLA      0.064300
     67 HMD2       70.6119   53.8755   38.0074 dc         1 CLA      0.064300
     68 HMD1       70.2514   54.6632   39.5358 dc         1 CLA      0.064300
     69 HMC3       73.7057   59.4259   45.4874 dc         1 CLA      0.052100
     70 HMC2       72.2209   60.1871   45.0911 dc         1 CLA      0.052100
     71 HMC1       72.1741   58.5460   45.6853 dc         1 CLA      0.052100
     72 HMB3       79.5082   62.0888   40.5287 dc         1 CLA      0.063600
     73 HMB2       79.7542   61.7249   42.3250 dc         1 CLA      0.063600
     74 HMB1       79.9930   60.4600   41.1582 dc         1 CLA      0.063600
     75 HMA3       80.0801   56.6499   37.1484 dc         1 CLA      0.058300
     76 HMA2       80.2259   57.8251   38.3913 dc         1 CLA      0.058300
     77 HMA1       79.2120   56.4251   38.6129 dc         1 CLA      0.058300
     78 HED3       77.6797   52.7956   37.5109 dc         1 CLA      0.079300
     79 HED2       76.3728   52.4353   38.6902 dc         1 CLA      0.079300
     80 HED1       76.2644   51.7847   37.0004 dc         1 CLA      0.079300
     81 HBC3       70.0168   54.9535   43.9394 dc         1 CLA      0.016300
     82 HBC2       70.5995   55.0972   42.3506 dc         1 CLA      0.016300
     83 HBC1       71.7538   55.1534   43.7584 dc         1 CLA      0.016300
     84 HBB2       77.3187   61.4041   45.9901 da         1 CLA      0.183000
     85 HBB1       76.4665   60.0174   44.9405 da         1 CLA      0.183000
     86 HBA2       78.1549   58.0101   33.1911 dc         1 CLA      0.029400
     87 HBA1       79.3281   58.2222   34.4251 dc         1 CLA      0.029400
     88 HAC2       70.5952   57.1482   44.7132 dc         1 CLA      0.029300
     89 HAC1       69.7290   57.5356   43.3096 dc         1 CLA      0.029300
     90 HAA2       76.5767   57.1756   34.5316 dc         1 CLA      0.028700
     91 HAA1       76.9502   58.7374   35.0137 dc         1 CLA      0.028700
     92 H203       81.1535   60.9196   44.7274 dc         1 CLA      0.065600
     93 H202       80.4578   61.6517   46.1549 dc         1 CLA      0.065600
     94 H201       81.6386   62.4795   45.0571 dc         1 CLA      0.065600
     95 H193       83.6728   62.8349   46.6683 dc         1 CLA      0.065600
     96 H192       82.3967   62.7072   47.8503 dc         1 CLA      0.065600
     97 H191       83.7976   61.6230   48.0463 dc         1 CLA      0.065600
     98 H172       84.5793   59.9439   46.2484 dc         1 CLA      0.027600
     99 H171       84.1107   61.0101   45.0019 dc         1 CLA      0.027600
    100 H162       82.4246   59.0912   44.2824 dc         1 CLA      0.002900
    101 H161       83.2861   58.2314   45.5658 dc         1 CLA      0.002900
    102 H152       85.5480   59.0187   44.1014 dc         1 CLA      0.029100
    103 H151       84.4690   59.6218   43.0618 dc         1 CLA      0.029100
    104 H143       83.7077   56.1133   44.3479 dc         1 CLA      0.063600
    105 H142       84.7721   55.4236   42.9910 dc         1 CLA      0.063600
    106 H141       85.4675   56.4604   44.1955 dc         1 CLA      0.063600
    107 H122       83.2518   58.4540   41.3105 dc         1 CLA      0.032500
    108 H121       82.2496   57.5662   42.3841 dc         1 CLA      0.032500
    109 H112       82.2991   56.9390   40.1603 dc         1 CLA      0.006600
    110 H111       82.8432   55.4745   40.9317 dc         1 CLA      0.006600
    111 H102       85.0876   55.9480   40.2066 dc         1 CLA      0.024100
    112 H101       84.6832   57.5656   39.8375 dc         1 CLA      0.024100
    113 HHD        70.7747   56.3171   40.8589 da         1 CLA      0.174300
    114 HHC        74.6380   60.4907   43.8480 da         1 CLA      0.136800
    115 HHB        79.0577   59.7607   39.2223 da         1 CLA      0.138300
    116 HBD        74.9161   55.6589   34.8992 dc         1 CLA      0.107700
    117 HAB        77.8896   62.4674   43.7399 da         1 CLA      0.155200
    118 H93        86.0741   56.4894   37.4511 dc         1 CLA      0.069500
    119 H92        84.9506   56.8663   36.2591 dc         1 CLA      0.069500
    120 H91        85.4902   58.1141   37.4616 dc         1 CLA      0.069500
    121 H8         83.2258   57.1198   37.9325 dc         1 CLA      0.029300
    122 H72        82.6027   54.8012   38.3108 dc         1 CLA      0.044400
    123 H71        84.2993   54.2657   38.2851 dc         1 CLA      0.044400
    124 H62        84.5262   54.6944   36.0168 dc         1 CLA      0.015600
    125 H61        82.7410   55.0989   35.8438 dc         1 CLA      0.015600
    126 H52        83.6103   52.4191   36.8753 dc         1 CLA      0.033200
    127 H51        83.3698   52.7922   35.1368 dc         1 CLA      0.033200
    128 H43        80.3499   51.0321   36.2310 dc         1 CLA      0.037000
    129 H42        82.0191   50.5977   36.5234 dc         1 CLA      0.037000
    130 H41        81.1819   51.4656   37.7690 dc         1 CLA      0.037000
    131 H3A        78.8366   58.8485   36.7788 dc         1 CLA      0.041100
    132 H2A        77.7605   56.1380   36.4510 dc         1 CLA      0.083100
    133 H2         80.5302   54.1647   36.9341 da         1 CLA      0.180900
    134 H18        81.9358   60.2814   46.9354 dc         1 CLA     -0.003900
    135 H13        85.3491   57.5890   42.2184 dc         1 CLA      0.019700
    136 H12        79.1633   53.5411   34.5472 dc         1 CLA      0.120400
    137 H11        80.7279   54.0495   33.7906 dc         1 CLA      0.120400
    138 C1         67.7899   61.0892   50.2539 Z1         2 LUT      0.509236
    139 C2         66.5498   60.9258   51.2402 Z2         2 LUT     -0.434695
    140 C3         65.7018   62.2195   51.5394 Z3         2 LUT      0.437453
    141 O3         65.9964   62.8195   52.8221 S1         2 LUT     -0.547129
    142 C4         65.9312   63.3369   50.5855 Z4         2 LUT     -0.468603
    143 C5         66.3327   62.9564   49.2497 Z5         2 LUT      0.279246
    144 C6         67.2136   61.8846   49.0661 Z6         2 LUT     -0.305473
    145 C7         67.4973   61.4525   47.7012 Z7         2 LUT      0.069402
    146 C8         68.7272   61.5350   47.0851 Z8         2 LUT     -0.191631
    147 C9         69.0589   61.2503   45.7574 Z9         2 LUT      0.196698
    148 C10        69.9904   61.9928   45.1228 Y1         2 LUT     -0.208611
    149 C11        70.5611   61.8800   43.7882 Y2         2 LUT      0.030784
    150 C12        71.6213   62.6828   43.3688 Y3         2 LUT     -0.220316
    151 C13        72.5805   62.5579   42.2300 Y4         2 LUT      0.215937
    152 C14        73.7697   63.2209   42.2878 Y5         2 LUT     -0.185793
    153 C15        74.8575   63.4808   41.3857 Y6         2 LUT     -0.057835
    154 C16        68.3489   59.6368   50.0429 Y7         2 LUT     -0.405615
    155 C17        68.7857   61.8443   51.0879 Y7         2 LUT     -0.405615
    156 C18        65.8738   63.8742   48.0787 Y9         2 LUT     -0.369639
    157 C19        68.3507   60.0890   45.0128 W1         2 LUT     -0.333362
    158 C20        72.2573   61.7814   40.9753 W2         2 LUT     -0.323439
    159 C21        86.1533   64.3585   35.3151 Z1         2 LUT      0.406104
    160 C22        87.0408   64.0667   34.0794 Z2         2 LUT     -0.404965
    161 C23        87.1449   65.1949   33.0657 Z3         2 LUT      0.391255
    162 O23        88.0600   64.7884   32.0831 S1         2 LUT     -0.528210
    163 C24        85.7340   65.6967   32.8209 W6         2 LUT     -0.258361
    164 C25        84.6367   65.6957   33.6069 Z5         2 LUT      0.133546
    165 C26        84.7061   64.9337   34.8926 W8         2 LUT     -0.147008
    166 C27        83.9437   65.7133   35.9008 Z7         2 LUT      0.023843
    167 C28        82.8227   65.3184   36.5190 Z8         2 LUT     -0.216987
    168 C29        82.1921   65.8309   37.7309 Z9         2 LUT      0.206524
    169 C30        81.2406   65.0902   38.2395 Y1         2 LUT     -0.215556
    170 C31        80.4902   65.2209   39.5233 Y2         2 LUT      0.025142
    171 C32        79.2504   64.7085   39.6023 Y3         2 LUT     -0.212209
    172 C33        78.2786   64.7957   40.7287 Y4         2 LUT      0.240937
    173 C34        77.0333   64.2084   40.6529 Y5         2 LUT     -0.218862
    174 C35        76.0020   64.1619   41.6626 Y6         2 LUT     -0.023547
    175 C36        86.9481   65.4327   36.2001 Y7         2 LUT     -0.393485
    176 C37        85.9530   63.0056   36.1009 Y7         2 LUT     -0.393485
    177 C38        83.4076   66.4139   33.2360 Y9         2 LUT     -0.387526
    178 C39        82.8388   66.9993   38.3810 W1         2 LUT     -0.322618
    179 C40        78.7891   65.3868   42.0009 W2         2 LUT     -0.358472
    180 H403       79.7059   65.9556   41.9462 R7         2 LUT      0.097720
    181 H402       78.2129   66.0849   42.5668 R7         2 LUT      0.097720
    182 H401       79.1788   64.5259   42.5968 R7         2 LUT      0.097720
    183 H393       82.4198   67.1759   39.4162 R4         2 LUT      0.082505
    184 H392       83.8941   66.9029   38.5858 R4         2 LUT      0.082505
    185 H391       82.7381   67.8448   37.8025 R4         2 LUT      0.082505
    186 H383       82.5059   65.8126   33.5104 R1         2 LUT      0.104030
    187 H382       83.2963   67.3314   33.8712 R1         2 LUT      0.104030
    188 H381       83.3244   66.7583   32.1511 R1         2 LUT      0.104030
    189 H373       85.4370   63.2706   37.0810 T4         2 LUT      0.089537
    190 H372       85.3226   62.2299   35.6108 T4         2 LUT      0.089537
    191 H371       86.9066   62.5916   36.3068 T4         2 LUT      0.089537
    192 H363       87.8561   64.9548   36.6371 T4         2 LUT      0.089537
    193 H362       87.2115   66.4310   35.7416 T4         2 LUT      0.089537
    194 H361       86.3537   65.8039   37.0311 T4         2 LUT      0.089537
    195 H222       87.9930   64.0253   34.4807 U2         2 LUT      0.127376
    196 H221       86.8541   63.1416   33.5475 U2         2 LUT      0.127376
    197 H203       73.0908   61.8285   40.2800 R7         2 LUT      0.087068
    198 H202       72.0109   60.7623   41.1347 R7         2 LUT      0.087068
    199 H201       71.4183   62.2584   40.4560 R7         2 LUT      0.087068
    200 H193       67.7384   59.4859   45.7079 R4         2 LUT      0.089716
    201 H192       67.7617   60.5761   44.2868 R4         2 LUT      0.089716
    202 H191       69.1855   59.4987   44.5560 R4         2 LUT      0.089716
    203 H183       66.3723   63.6934   47.1165 R1         2 LUT      0.094572
    204 H182       64.7902   63.6949   47.9481 R1         2 LUT      0.094572
    205 H181       66.1113   64.9575   48.3669 R1         2 LUT      0.094572
    206 H173       69.7413   61.7163   50.5840 T4         2 LUT      0.093752
    207 H172       68.5392   62.8960   51.0110 T4         2 LUT      0.093752
    208 H171       68.8614   61.6150   52.1195 T4         2 LUT      0.093752
    209 H163       68.5027   59.2061   51.0220 T4         2 LUT      0.093752
    210 H162       67.6392   59.1111   49.4501 T4         2 LUT      0.093752
    211 H161       69.2293   59.5885   49.3712 T4         2 LUT      0.093752
    212 HO3        65.6626   62.2902   53.5671 Q1         2 LUT      0.300121
    213 H8         69.5610   61.8561   47.7029 U7         2 LUT      0.080784
    214 H7         66.7278   60.9677   47.1150 U6         2 LUT      0.042190
    215 H42        64.9225   63.8851   50.5015 U5         2 LUT      0.145166
    216 H41        66.5027   64.1865   50.9937 U5         2 LUT      0.145166
    217 H35        76.0762   64.6783   42.6188 T3         2 LUT      0.077919
    218 H34        76.7840   63.6889   39.7044 T2         2 LUT      0.073626
    219 H32        78.8615   64.2526   38.7515 T1         2 LUT      0.092510
    220 H31        80.9180   65.8328   40.2679 U9         2 LUT      0.070048
    221 H30        80.9019   64.2439   37.5897 U8         2 LUT      0.085442
    222 H3         64.5641   61.9024   51.5109 U3         2 LUT     -0.031596
    223 H28        82.2160   64.5386   36.0591 U7         2 LUT      0.084728
    224 H27        84.3808   66.6187   36.2722 U6         2 LUT      0.087291
    225 H26        84.0889   64.0221   34.5813 Q6         2 LUT      0.075325
    226 H24        85.7023   66.1832   31.8008 Q5         2 LUT      0.094482
    227 H23        87.7730   65.9657   33.6096 U3         2 LUT     -0.024869
    228 H22        65.9033   60.2230   50.7185 U2         2 LUT      0.127376
    229 H21        66.9362   60.4661   52.1737 U2         2 LUT      0.127376
    230 H15        74.8014   62.9819   40.4133 T3         2 LUT      0.093200
    231 H14        73.9585   63.8562   43.0923 T2         2 LUT      0.068865
    232 H12        72.0684   63.2815   44.1153 T1         2 LUT      0.095507
    233 H11        70.1756   61.0724   43.1819 U9         2 LUT      0.068930
    234 H10        70.3326   62.8896   45.7042 U8         2 LUT      0.083911
    235 H1         87.6274   64.4401   31.2847 Q1         2 LUT      0.297311
@<TRIPOS>BOND
    1     6     1 1
    2     7     2 1
    3     8     3 1
    4     9     4 1
    5    11     4 1
    6    12     6 1
    7    13     9 1
    8    16     9 1
    9    25     5 1
   10    25    16 1
   11    26    10 1
   12    26    17 1
   13    27    18 1
   14    28    14 1
   15    28    19 1
   16    29    12 1
   17    30    13 1
   18    31    24 1
   19    32     1 1
   20    32    25 1
   21    33    21 1
   22    33    26 1
   23    34    22 1
   24    34    27 1
   25    35    23 1
   26    35    28 1
   27    36    12 1
   28    36    24 1
   29    37    13 1
   30    37    15 1
   31    38    31 1
   32    39    20 1
   33    39    32 1
   34    40     2 1
   35    40    33 1
   36    41     3 1
   37    41    34 1
   38    42     4 1
   39    42    35 1
   40    43    38 1
   41    44     5 1
   42    44    17 1
   43    44    39 1
   44    45    10 1
   45    45    18 1
   46    45    40 1
   47    46    19 1
   48    46    41 1
   49    47    14 1
   50    47    16 1
   51    47    42 1
   52    48    38 1
   53    49    48 1
   54    50    49 1
   55    51    50 1
   56    52    51 1
   57    53    51 1
   58    54    53 1
   59    55    54 1
   60    56    55 1
   61    57    56 1
   62    58    56 1
   63    59    58 1
   64    60    59 1
   65    61    60 1
   66    62    61 1
   67    63    61 1
   68    64    27 1
   69    64    46 1
   70    65     5 1
   71    65    10 1
   72    65    64 1
   73    65    14 1
   74    66    23 1
   75    67    23 1
   76    68    23 1
   77    69    22 1
   78    70    22 1
   79    71    22 1
   80    72    21 1
   81    73    21 1
   82    74    21 1
   83    75    20 1
   84    76    20 1
   85    77    20 1
   86    78    15 1
   87    79    15 1
   88    80    15 1
   89    81     8 1
   90    82     8 1
   91    83     8 1
   92    84     7 1
   93    85     7 1
   94    86     6 1
   95    87     6 1
   96    88     3 1
   97    89     3 1
   98    90     1 1
   99    91     1 1
  100    92    63 1
  101    93    63 1
  102    94    63 1
  103    95    62 1
  104    96    62 1
  105    97    62 1
  106    98    60 1
  107    99    60 1
  108   100    59 1
  109   101    59 1
  110   102    58 1
  111   103    58 1
  112   104    57 1
  113   105    57 1
  114   106    57 1
  115   107    55 1
  116   108    55 1
  117   109    54 1
  118   110    54 1
  119   111    53 1
  120   112    53 1
  121   113    19 1
  122   114    18 1
  123   115    17 1
  124   116     9 1
  125   117     2 1
  126   118    52 1
  127   119    52 1
  128   120    52 1
  129   121    51 1
  130   122    50 1
  131   123    50 1
  132   124    49 1
  133   125    49 1
  134   126    48 1
  135   127    48 1
  136   128    43 1
  137   129    43 1
  138   130    43 1
  139   131    39 1
  140   132    32 1
  141   133    31 1
  142   134    61 1
  143   135    56 1
  144   136    24 1
  145   137    24 1
  146   139   138 1
  147   140   139 1
  148   141   140 1
  149   142   140 1
  150   143   142 1
  151   144   138 1
  152   144   143 1
  153   145   144 1
  154   146   145 1
  155   147   146 1
  156   148   147 1
  157   149   148 1
  158   150   149 1
  159   151   150 1
  160   152   151 1
  161   153   152 1
  162   154   138 1
  163   155   138 1
  164   156   143 1
  165   157   147 1
  166   158   151 1
  167   160   159 1
  168   161   160 1
  169   162   161 1
  170   163   161 1
  171   164   163 1
  172   165   159 1
  173   165   164 1
  174   166   165 1
  175   167   166 1
  176   168   167 1
  177   169   168 1
  178   170   169 1
  179   171   170 1
  180   172   171 1
  181   173   172 1
  182   174   153 1
  183   174   173 1
  184   175   159 1
  185   176   159 1
  186   177   164 1
  187   178   168 1
  188   179   172 1
  189   180   179 1
  190   181   179 1
  191   182   179 1
  192   183   178 1
  193   184   178 1
  194   185   178 1
  195   186   177 1
  196   187   177 1
  197   188   177 1
  198   189   176 1
  199   190   176 1
  200   191   176 1
  201   192   175 1
  202   193   175 1
  203   194   175 1
  204   195   160 1
  205   196   160 1
  206   197   158 1
  207   198   158 1
  208   199   158 1
  209   200   157 1
  210   201   157 1
  211   202   157 1
  212   203   156 1
  213   204   156 1
  214   205   156 1
  215   206   155 1
  216   207   155 1
  217   208   155 1
  218   209   154 1
  219   210   154 1
  220   211   154 1
  221   212   141 1
  222   213   146 1
  223   214   145 1
  224   215   142 1
  225   216   142 1
  226   217   174 1
  227   218   173 1
  228   219   171 1
  229   220   170 1
  230   221   169 1
  231   222   140 1
  232   223   167 1
  233   224   166 1
  234   225   165 1
  235   226   163 1
  236   227   161 1
  237   228   139 1
  238   229   139 1
  239   230   153 1
  240   231   152 1
  241   232   150 1
  242   233   149 1
  243   234   148 1
  244   235   162 1
  245   65    153 1
  246   65    174 1
@<TRIPOS>SUBSTRUCTURE
      1 CLA               1 ****               0 ****  **** 
      2 LUT             138 ****               0 ****  **** 
