@<TRIPOS>MOLECULE
Cpptraj generated mol2 file.
  235   246     2     0     0
SMALL
USER_CHARGES


@<TRIPOS>ATOM
      1 CAA        79.3629   58.8534   34.0920 a2         1 CLA     -0.055900
      2 CAB        78.8641   62.6272   43.0329 c8         1 CLA     -0.148500
      3 CAC        72.4526   58.0800   42.2452 a2         1 CLA     -0.012600
      4 CAD        75.4439   55.8114   35.1902 ck         1 CLA      0.398800
      5 NA         78.4112   58.9425   37.5531 ns         1 CLA     -0.225500
      6 CBA        80.5592   58.9867   33.1910 a2         1 CLA     -0.135000
      7 CBB        79.9106   62.8795   43.8665 c0         1 CLA     -0.395200
      8 CBC        72.9876   56.7119   42.4821 a3         1 CLA     -0.037700
      9 CBD        76.9523   56.4177   35.0486 a1         1 CLA     -0.053900
     10 NB         78.1621   60.4424   40.0578 nm         1 CLA     -0.295700
     11 OBD        74.9112   55.0630   34.3671 o2         1 CLA     -0.494600
     12 CGA        81.3433   57.7677   32.7772 c4         1 CLA      0.827000
     13 CGD        77.9314   55.3238   34.8448 c4         1 CLA      0.655300
     14 ND         75.6277   57.9920   38.0342 nm         1 CLA     -0.291600
     15 CED        78.3746   53.0916   35.6338 a3         1 CLA      0.005400
     16 CHA        77.2014   57.4484   36.1363 cs         1 CLA     -0.123800
     17 CHB        79.9661   60.4099   38.5394 aa         1 CLA     -0.291900
     18 CHC        76.7245   60.6687   41.9926 aa         1 CLA     -0.090400
     19 CHD        73.7057   58.0022   39.3895 aa         1 CLA     -0.052000
     20 CMA        81.7530   58.3260   36.9553 a3         1 CLA     -0.230700
     21 CMB        81.2931   62.5333   40.7159 a3         1 CLA     -0.180800
     22 CMC        74.2538   60.2478   43.8930 a3         1 CLA     -0.134000
     23 CMD        72.5178   55.8650   37.1578 a3         1 CLA     -0.141100
     24 C1         82.6587   56.0094   33.5834 a2         1 CLA      0.023000
     25 C1A        78.3187   58.1995   36.4003 ac         1 CLA     -0.015100
     26 C1B        79.4037   60.8889   39.6759 cr         1 CLA      0.054700
     27 C1C        75.5702   60.0113   41.6767 cn         1 CLA     -0.005600
     28 C1D        74.3305   57.5401   38.2583 ap         1 CLA     -0.047300
     29 O1A        81.4215   57.3056   31.6386 o2         1 CLA     -0.610800
     30 O1D        78.7416   55.2588   33.9311 o2         1 CLA     -0.558200
     31 C2         83.4018   55.5169   34.8540 c8         1 CLA     -0.325100
     32 C2A        79.5963   58.1697   35.4820 a1         1 CLA      0.098600
     33 C2B        79.8996   61.8256   40.7467 cb         1 CLA      0.088500
     34 C2C        74.3885   59.7697   42.5010 cb         1 CLA      0.053700
     35 C2D        73.8515   56.6361   37.2593 cb         1 CLA      0.058900
     36 O2A        81.8791   57.1855   33.8829 o1         1 CLA     -0.437200
     37 O2D        77.6788   54.3392   35.7826 o1         1 CLA     -0.357600
     38 C3         84.1951   54.3880   34.8465 c5         1 CLA      0.031200
     39 C3A        80.5170   59.0687   36.4293 a1         1 CLA      0.166800
     40 C3B        78.9209   61.8669   41.7623 cb         1 CLA      0.035000
     41 C3C        73.5957   58.9065   41.7472 cb         1 CLA     -0.089900
     42 C3D        75.0148   56.4551   36.3949 cb         1 CLA     -0.035900
     43 C4         83.6119   52.9996   35.1574 a3         1 CLA     -0.053300
     44 C4A        79.6072   59.4613   37.6402 ac         1 CLA      0.001800
     45 C4B        77.9198   60.9794   41.2726 cn         1 CLA     -0.020900
     46 C4C        74.2065   58.7407   40.4517 cr         1 CLA     -0.044400
     47 C4D        76.0017   57.3836   36.8474 c6         1 CLA     -0.046000
     48 C5         85.7465   54.3679   34.5249 a2         1 CLA     -0.070400
     49 C6         86.5178   55.5387   35.0800 a2         1 CLA      0.043900
     50 C7         86.4827   55.6567   36.5909 a2         1 CLA     -0.150000
     51 C8         87.4497   54.8572   37.5725 a1         1 CLA      0.064200
     52 C9         87.5360   53.3628   37.3158 a3         1 CLA     -0.259300
     53 C10        87.3914   55.2163   39.1422 a2         1 CLA     -0.071900
     54 C11        87.1728   56.7083   39.4980 a2         1 CLA      0.014500
     55 C12        87.0939   56.8824   41.0653 a2         1 CLA     -0.112100
     56 C13        86.8310   58.2661   41.7107 a1         1 CLA      0.089200
     57 C14        87.8749   59.3025   41.1016 a3         1 CLA     -0.239100
     58 C15        86.8726   58.1394   43.2752 a2         1 CLA     -0.102200
     59 C16        85.8128   57.3245   44.0413 a2         1 CLA      0.023900
     60 C17        86.0282   57.3199   45.5221 a2         1 CLA     -0.105700
     61 C18        85.9941   58.6835   46.2314 a1         1 CLA      0.206800
     62 C19        84.6417   59.3720   46.0056 a3         1 CLA     -0.280100
     63 C20        86.1737   58.4184   47.7277 a3         1 CLA     -0.280100
     64 NC         75.4041   59.3741   40.4441 nx         1 CLA     -0.309200
     65 MG         76.7919   59.2703   38.9626 mg         1 CLA      0.895000
     66 HMD3       72.1837   55.4700   38.0797 dc         1 CLA      0.064300
     67 HMD2       71.7830   56.6577   36.7926 dc         1 CLA      0.064300
     68 HMD1       72.6001   55.0948   36.4362 dc         1 CLA      0.064300
     69 HMC3       74.8439   61.1617   44.1137 dc         1 CLA      0.052100
     70 HMC2       73.2309   60.4766   44.1084 dc         1 CLA      0.052100
     71 HMC1       74.4867   59.3809   44.5151 dc         1 CLA      0.052100
     72 HMB3       81.6338   62.8137   39.7191 dc         1 CLA      0.063600
     73 HMB2       81.5022   63.3632   41.4509 dc         1 CLA      0.063600
     74 HMB1       82.0024   61.7365   40.9684 dc         1 CLA      0.063600
     75 HMA3       81.3634   57.3405   37.1787 dc         1 CLA      0.058300
     76 HMA2       82.6753   58.3245   36.2848 dc         1 CLA      0.058300
     77 HMA1       82.2183   58.7752   37.8390 dc         1 CLA      0.058300
     78 HED3       79.3758   53.2813   35.4893 dc         1 CLA      0.079300
     79 HED2       78.1265   52.4538   36.4812 dc         1 CLA      0.079300
     80 HED1       77.9934   52.5835   34.7895 dc         1 CLA      0.079300
     81 HBC3       73.9131   56.6590   43.0355 dc         1 CLA      0.016300
     82 HBC2       72.1867   56.1616   43.0299 dc         1 CLA      0.016300
     83 HBC1       73.1696   56.3067   41.5112 dc         1 CLA      0.016300
     84 HBB2       79.8414   63.2850   44.8260 da         1 CLA      0.183000
     85 HBB1       80.9220   62.5892   43.5865 da         1 CLA      0.183000
     86 HBA2       80.1051   59.4795   32.3428 dc         1 CLA      0.029400
     87 HBA1       81.2991   59.7090   33.5606 dc         1 CLA      0.029400
     88 HAC2       72.0923   58.5061   43.1666 dc         1 CLA      0.029300
     89 HAC1       71.6076   58.0168   41.5377 dc         1 CLA      0.029300
     90 HAA2       78.6954   58.2408   33.6451 dc         1 CLA      0.028700
     91 HAA1       78.9398   59.8116   34.1793 dc         1 CLA      0.028700
     92 H203       87.0844   57.8854   47.7875 dc         1 CLA      0.065600
     93 H202       86.1113   59.3721   48.2339 dc         1 CLA      0.065600
     94 H201       85.2957   57.8644   47.9896 dc         1 CLA      0.065600
     95 H193       84.6242   59.5411   44.9164 dc         1 CLA      0.065600
     96 H192       83.7790   58.7566   46.3690 dc         1 CLA      0.065600
     97 H191       84.7454   60.3978   46.3690 dc         1 CLA      0.065600
     98 H172       85.2511   56.6925   45.9859 dc         1 CLA      0.027600
     99 H171       86.9558   56.8042   45.6635 dc         1 CLA      0.027600
    100 H162       84.8120   57.6054   43.8746 dc         1 CLA      0.002900
    101 H161       85.9021   56.3500   43.6271 dc         1 CLA      0.002900
    102 H152       87.8840   57.7076   43.4306 dc         1 CLA      0.029100
    103 H151       86.6438   59.1784   43.6347 dc         1 CLA      0.029100
    104 H143       88.8907   59.0415   41.3402 dc         1 CLA      0.063600
    105 H142       87.8530   59.3972   40.0050 dc         1 CLA      0.063600
    106 H141       87.7378   60.3435   41.5864 dc         1 CLA      0.063600
    107 H122       86.4461   56.1281   41.4093 dc         1 CLA      0.032500
    108 H121       88.0803   56.6162   41.5194 dc         1 CLA      0.032500
    109 H112       88.0091   57.2841   39.1282 dc         1 CLA      0.006600
    110 H111       86.2249   57.0915   38.9225 dc         1 CLA      0.006600
    111 H102       86.4471   54.7330   39.4213 dc         1 CLA      0.024100
    112 H101       88.2796   54.8897   39.6624 dc         1 CLA      0.024100
    113 HHD        72.7393   57.5475   39.5663 da         1 CLA      0.174300
    114 HHC        76.7250   61.1949   42.9344 da         1 CLA      0.136800
    115 HHB        80.9888   60.8635   38.2822 da         1 CLA      0.138300
    116 HBD        76.9026   56.8019   34.0782 dc         1 CLA      0.107700
    117 HAB        77.8731   62.8827   43.3135 da         1 CLA      0.155200
    118 H93        88.1712   52.8577   38.0656 dc         1 CLA      0.069500
    119 H92        86.5973   52.8872   37.4235 dc         1 CLA      0.069500
    120 H91        87.9604   53.3359   36.3403 dc         1 CLA      0.069500
    121 H8         88.4028   55.1668   37.2333 dc         1 CLA      0.029300
    122 H72        86.9048   56.6527   36.7152 dc         1 CLA      0.044400
    123 H71        85.4910   55.6723   37.0454 dc         1 CLA      0.044400
    124 H62        87.4856   55.4970   34.7006 dc         1 CLA      0.015600
    125 H61        86.0171   56.4222   34.7279 dc         1 CLA      0.015600
    126 H52        86.3096   53.5106   34.9563 dc         1 CLA      0.033200
    127 H51        85.8031   54.3833   33.4022 dc         1 CLA      0.033200
    128 H43        83.7229   52.5412   34.1865 dc         1 CLA      0.037000
    129 H42        84.1422   52.5680   35.9980 dc         1 CLA      0.037000
    130 H41        82.4924   52.9922   35.3178 dc         1 CLA      0.037000
    131 H3A        80.8786   60.0124   35.9655 dc         1 CLA      0.041100
    132 H2A        80.0305   57.1657   35.4860 dc         1 CLA      0.083100
    133 H2         83.2227   56.1188   35.7578 da         1 CLA      0.180900
    134 H18        86.7912   59.3126   45.8772 dc         1 CLA     -0.003900
    135 H13        85.8150   58.6307   41.3992 dc         1 CLA      0.019700
    136 H12        82.0219   55.1702   33.2984 dc         1 CLA      0.120400
    137 H11        83.3087   56.2228   32.6721 dc         1 CLA      0.120400
    138 C1         69.3151   62.0067   49.2835 Z1         2 LUT      0.509236
    139 C2         67.8906   61.6772   49.7224 Z2         2 LUT     -0.434695
    140 C3         67.1257   62.8737   50.2607 Z3         2 LUT      0.437453
    141 O3         66.9065   62.8985   51.6796 S1         2 LUT     -0.547129
    142 C4         67.6575   64.2128   49.6503 Z4         2 LUT     -0.468603
    143 C5         68.2356   64.0804   48.3302 Z5         2 LUT      0.279246
    144 C6         69.1734   63.1226   48.1933 Z6         2 LUT     -0.305473
    145 C7         69.5110   62.7309   46.8395 Z7         2 LUT      0.069402
    146 C8         70.7295   62.9355   46.2069 Z8         2 LUT     -0.191631
    147 C9         71.2792   62.5169   44.9432 Z9         2 LUT      0.196698
    148 C10        72.3913   63.1772   44.5275 Y1         2 LUT     -0.208611
    149 C11        73.1544   63.1563   43.2743 Y2         2 LUT      0.030784
    150 C12        74.2477   63.9463   43.0854 Y3         2 LUT     -0.220316
    151 C13        75.1624   63.8255   41.9694 Y4         2 LUT      0.215937
    152 C14        76.2969   64.6251   42.0211 Y5         2 LUT     -0.185793
    153 C15        77.3088   64.7866   40.9820 Y6         2 LUT     -0.057835
    154 C16        69.9073   60.6863   48.7194 Y7         2 LUT     -0.405615
    155 C17        70.0090   62.2506   50.6493 Y7         2 LUT     -0.405615
    156 C18        67.4349   64.8241   47.2727 Y9         2 LUT     -0.369639
    157 C19        70.5659   61.4447   44.1407 W1         2 LUT     -0.333362
    158 C20        74.6066   63.2262   40.6945 W2         2 LUT     -0.323439
    159 C21        88.1928   65.6566   34.6190 Z1         2 LUT      0.406104
    160 C22        89.2143   65.3857   33.4989 Z2         2 LUT     -0.404965
    161 C23        89.5257   66.6159   32.5876 Z3         2 LUT      0.391255
    162 O23        90.5345   66.1632   31.6263 S1         2 LUT     -0.528210
    163 C24        88.2860   67.4047   32.2771 W6         2 LUT     -0.258361
    164 C25        87.0871   67.3540   32.8588 Z5         2 LUT      0.133546
    165 C26        86.9151   66.3666   33.9912 W8         2 LUT     -0.147008
    166 C27        86.1551   66.9849   35.1429 Z7         2 LUT      0.023843
    167 C28        85.1970   66.4350   35.9346 Z8         2 LUT     -0.216987
    168 C29        84.6243   66.9685   37.1745 Z9         2 LUT      0.206524
    169 C30        83.6418   66.2544   37.7952 Y1         2 LUT     -0.215556
    170 C31        82.8554   66.6806   38.8839 Y2         2 LUT      0.025142
    171 C32        81.7395   65.9613   39.3214 Y3         2 LUT     -0.212209
    172 C33        80.7272   66.1678   40.3673 Y4         2 LUT      0.240937
    173 C34        79.6125   65.3948   40.3512 Y5         2 LUT     -0.218862
    174 C35        78.4984   65.4644   41.2609 Y6         2 LUT     -0.023547
    175 C36        89.0159   66.5750   35.5855 Y7         2 LUT     -0.393485
    176 C37        88.0289   64.3878   35.4790 Y7         2 LUT     -0.393485
    177 C38        85.8769   68.0873   32.3640 Y9         2 LUT     -0.387526
    178 C39        84.9123   68.3972   37.6148 W1         2 LUT     -0.322618
    179 C40        81.1203   66.8775   41.6061 W2         2 LUT     -0.358472
    180 H403       81.2213   66.1441   42.4078 R7         2 LUT      0.097720
    181 H402       82.0797   67.4382   41.5718 R7         2 LUT      0.097720
    182 H401       80.3615   67.4516   42.0438 R7         2 LUT      0.097720
    183 H393       83.9548   68.8613   37.8852 R4         2 LUT      0.082505
    184 H392       85.5578   68.5342   38.4445 R4         2 LUT      0.082505
    185 H391       85.2585   68.9980   36.8403 R4         2 LUT      0.082505
    186 H383       85.9593   68.1587   31.2897 R1         2 LUT      0.104030
    187 H382       85.0023   67.4874   32.6952 R1         2 LUT      0.104030
    188 H381       85.7715   69.0327   32.8416 R1         2 LUT      0.104030
    189 H373       87.4979   63.7261   34.8196 T4         2 LUT      0.089537
    190 H372       88.9224   63.8485   35.7428 T4         2 LUT      0.089537
    191 H371       87.5266   64.5902   36.4537 T4         2 LUT      0.089537
    192 H363       88.3414   66.8708   36.5134 T4         2 LUT      0.089537
    193 H362       89.9433   66.1627   35.9130 T4         2 LUT      0.089537
    194 H361       89.2937   67.5051   35.1310 T4         2 LUT      0.089537
    195 H222       90.1021   64.8350   33.7737 U2         2 LUT      0.127376
    196 H221       88.7629   64.6715   32.7805 U2         2 LUT      0.127376
    197 H203       74.5103   62.1027   40.6245 R7         2 LUT      0.087068
    198 H202       73.6005   63.6077   40.4386 R7         2 LUT      0.087068
    199 H201       75.1264   63.5347   39.7569 R7         2 LUT      0.087068
    200 H193       69.7069   61.7950   43.5670 R4         2 LUT      0.089716
    201 H192       71.1946   60.8861   43.5198 R4         2 LUT      0.089716
    202 H191       70.1759   60.8066   44.9042 R4         2 LUT      0.089716
    203 H183       67.7870   65.8660   47.2786 R1         2 LUT      0.094572
    204 H182       67.6736   64.4358   46.2772 R1         2 LUT      0.094572
    205 H181       66.3460   64.6905   47.4410 R1         2 LUT      0.094572
    206 H173       69.5593   63.0193   51.2523 T4         2 LUT      0.093752
    207 H172       69.9458   61.3044   51.3101 T4         2 LUT      0.093752
    208 H171       71.0753   62.6054   50.3241 T4         2 LUT      0.093752
    209 H163       70.9567   60.8752   48.3906 T4         2 LUT      0.093752
    210 H162       70.0400   59.9392   49.4720 T4         2 LUT      0.093752
    211 H161       69.2920   60.2465   47.9041 T4         2 LUT      0.093752
    212 HO3        66.6273   62.0971   52.1167 Q1         2 LUT      0.300121
    213 H8         71.5012   63.3059   46.8985 U7         2 LUT      0.080784
    214 H7         68.6740   62.2309   46.2699 U6         2 LUT      0.042190
    215 H42        66.8581   64.9213   49.5475 U5         2 LUT      0.145166
    216 H41        68.4156   64.6605   50.2846 U5         2 LUT      0.145166
    217 H35        78.6809   65.9808   42.1953 T3         2 LUT      0.077919
    218 H34        79.5343   64.7345   39.4600 T2         2 LUT      0.073626
    219 H32        81.6101   65.0499   38.7345 T1         2 LUT      0.092510
    220 H31        83.1440   67.6171   39.3279 U9         2 LUT      0.070048
    221 H30        83.4621   65.2905   37.3264 U8         2 LUT      0.085442
    222 H3         66.1191   62.9199   49.7434 U3         2 LUT     -0.031596
    223 H28        84.7909   65.5350   35.5680 U7         2 LUT      0.084728
    224 H27        86.6133   67.9430   35.4852 U6         2 LUT      0.087291
    225 H26        86.3374   65.5497   33.5485 Q6         2 LUT      0.075325
    226 H24        88.4477   68.0656   31.3708 Q5         2 LUT      0.094482
    227 H23        90.0792   67.3490   33.1404 U3         2 LUT     -0.024869
    228 H22        67.2348   61.3988   48.8543 U2         2 LUT      0.127376
    229 H21        67.8586   60.7376   50.3830 U2         2 LUT      0.127376
    230 H15        77.1280   64.1821   40.0487 T3         2 LUT      0.093200
    231 H14        76.3897   65.2773   42.9089 T2         2 LUT      0.068865
    232 H12        74.5215   64.7286   43.8286 T1         2 LUT      0.095507
    233 H11        72.8671   62.4054   42.5200 U9         2 LUT      0.068930
    234 H10        72.7660   64.0056   45.1860 U8         2 LUT      0.083911
    235 H1         90.2420   66.2473   30.6953 Q1         2 LUT      0.297311
@<TRIPOS>BOND
    1     6     1 1
    2     7     2 1
    3     8     3 1
    4     9     4 1
    5    11     4 1
    6    12     6 1
    7    13     9 1
    8    16     9 1
    9    25     5 1
   10    25    16 1
   11    26    10 1
   12    26    17 1
   13    27    18 1
   14    28    14 1
   15    28    19 1
   16    29    12 1
   17    30    13 1
   18    31    24 1
   19    32     1 1
   20    32    25 1
   21    33    21 1
   22    33    26 1
   23    34    22 1
   24    34    27 1
   25    35    23 1
   26    35    28 1
   27    36    12 1
   28    36    24 1
   29    37    13 1
   30    37    15 1
   31    38    31 1
   32    39    20 1
   33    39    32 1
   34    40     2 1
   35    40    33 1
   36    41     3 1
   37    41    34 1
   38    42     4 1
   39    42    35 1
   40    43    38 1
   41    44     5 1
   42    44    17 1
   43    44    39 1
   44    45    10 1
   45    45    18 1
   46    45    40 1
   47    46    19 1
   48    46    41 1
   49    47    14 1
   50    47    16 1
   51    47    42 1
   52    48    38 1
   53    49    48 1
   54    50    49 1
   55    51    50 1
   56    52    51 1
   57    53    51 1
   58    54    53 1
   59    55    54 1
   60    56    55 1
   61    57    56 1
   62    58    56 1
   63    59    58 1
   64    60    59 1
   65    61    60 1
   66    62    61 1
   67    63    61 1
   68    64    27 1
   69    64    46 1
   70    65     5 1
   71    65    10 1
   72    65    64 1
   73    65    14 1
   74    66    23 1
   75    67    23 1
   76    68    23 1
   77    69    22 1
   78    70    22 1
   79    71    22 1
   80    72    21 1
   81    73    21 1
   82    74    21 1
   83    75    20 1
   84    76    20 1
   85    77    20 1
   86    78    15 1
   87    79    15 1
   88    80    15 1
   89    81     8 1
   90    82     8 1
   91    83     8 1
   92    84     7 1
   93    85     7 1
   94    86     6 1
   95    87     6 1
   96    88     3 1
   97    89     3 1
   98    90     1 1
   99    91     1 1
  100    92    63 1
  101    93    63 1
  102    94    63 1
  103    95    62 1
  104    96    62 1
  105    97    62 1
  106    98    60 1
  107    99    60 1
  108   100    59 1
  109   101    59 1
  110   102    58 1
  111   103    58 1
  112   104    57 1
  113   105    57 1
  114   106    57 1
  115   107    55 1
  116   108    55 1
  117   109    54 1
  118   110    54 1
  119   111    53 1
  120   112    53 1
  121   113    19 1
  122   114    18 1
  123   115    17 1
  124   116     9 1
  125   117     2 1
  126   118    52 1
  127   119    52 1
  128   120    52 1
  129   121    51 1
  130   122    50 1
  131   123    50 1
  132   124    49 1
  133   125    49 1
  134   126    48 1
  135   127    48 1
  136   128    43 1
  137   129    43 1
  138   130    43 1
  139   131    39 1
  140   132    32 1
  141   133    31 1
  142   134    61 1
  143   135    56 1
  144   136    24 1
  145   137    24 1
  146   139   138 1
  147   140   139 1
  148   141   140 1
  149   142   140 1
  150   143   142 1
  151   144   138 1
  152   144   143 1
  153   145   144 1
  154   146   145 1
  155   147   146 1
  156   148   147 1
  157   149   148 1
  158   150   149 1
  159   151   150 1
  160   152   151 1
  161   153   152 1
  162   154   138 1
  163   155   138 1
  164   156   143 1
  165   157   147 1
  166   158   151 1
  167   160   159 1
  168   161   160 1
  169   162   161 1
  170   163   161 1
  171   164   163 1
  172   165   159 1
  173   165   164 1
  174   166   165 1
  175   167   166 1
  176   168   167 1
  177   169   168 1
  178   170   169 1
  179   171   170 1
  180   172   171 1
  181   173   172 1
  182   174   153 1
  183   174   173 1
  184   175   159 1
  185   176   159 1
  186   177   164 1
  187   178   168 1
  188   179   172 1
  189   180   179 1
  190   181   179 1
  191   182   179 1
  192   183   178 1
  193   184   178 1
  194   185   178 1
  195   186   177 1
  196   187   177 1
  197   188   177 1
  198   189   176 1
  199   190   176 1
  200   191   176 1
  201   192   175 1
  202   193   175 1
  203   194   175 1
  204   195   160 1
  205   196   160 1
  206   197   158 1
  207   198   158 1
  208   199   158 1
  209   200   157 1
  210   201   157 1
  211   202   157 1
  212   203   156 1
  213   204   156 1
  214   205   156 1
  215   206   155 1
  216   207   155 1
  217   208   155 1
  218   209   154 1
  219   210   154 1
  220   211   154 1
  221   212   141 1
  222   213   146 1
  223   214   145 1
  224   215   142 1
  225   216   142 1
  226   217   174 1
  227   218   173 1
  228   219   171 1
  229   220   170 1
  230   221   169 1
  231   222   140 1
  232   223   167 1
  233   224   166 1
  234   225   165 1
  235   226   163 1
  236   227   161 1
  237   228   139 1
  238   229   139 1
  239   230   153 1
  240   231   152 1
  241   232   150 1
  242   233   149 1
  243   234   148 1
  244   235   162 1
  245   65    153 1
  246   65    174 1
@<TRIPOS>SUBSTRUCTURE
      1 CLA               1 ****               0 ****  **** 
      2 LUT             138 ****               0 ****  **** 
