@<TRIPOS>MOLECULE
Cpptraj generated mol2 file.
  235   246     2     0     0
SMALL
USER_CHARGES


@<TRIPOS>ATOM
      1 CAA        77.6113   58.6794   33.8889 a2         1 CLA     -0.055900
      2 CAB        76.9796   62.0179   42.8286 c8         1 CLA     -0.148500
      3 CAC        70.3287   57.6886   41.5438 a2         1 CLA     -0.012600
      4 CAD        73.6223   55.6783   34.7320 ck         1 CLA      0.398800
      5 NA         76.4695   58.9189   37.1371 ns         1 CLA     -0.225500
      6 CBA        78.8597   58.6576   33.0331 a2         1 CLA     -0.135000
      7 CBB        78.0832   62.1717   43.6120 c0         1 CLA     -0.395200
      8 CBC        70.7419   56.2938   41.7600 a3         1 CLA     -0.037700
      9 CBD        75.0625   56.4022   34.4310 a1         1 CLA     -0.053900
     10 NB         76.0358   60.2630   39.6790 nm         1 CLA     -0.295700
     11 OBD        73.1833   54.7547   34.0972 o2         1 CLA     -0.494600
     12 CGA        79.3529   57.2510   32.6719 c4         1 CLA      0.827000
     13 CGD        76.1458   55.4444   34.0891 c4         1 CLA      0.655300
     14 ND         73.7195   57.8439   37.5000 nm         1 CLA     -0.291600
     15 CED        76.8406   53.1542   34.4861 a3         1 CLA      0.005400
     16 CHA        75.3540   57.2921   35.6456 cs         1 CLA     -0.123800
     17 CHB        78.0928   60.3004   38.2793 aa         1 CLA     -0.291900
     18 CHC        74.5712   60.5194   41.6962 aa         1 CLA     -0.090400
     19 CHD        71.7566   57.8052   38.8434 aa         1 CLA     -0.052000
     20 CMA        79.9603   58.2714   36.8587 a3         1 CLA     -0.230700
     21 CMB        79.3029   61.9938   40.4549 a3         1 CLA     -0.180800
     22 CMC        72.3311   59.3892   43.5282 a3         1 CLA     -0.134000
     23 CMD        70.6334   55.8512   36.5654 a3         1 CLA     -0.141100
     24 C1         80.3810   55.2011   33.4598 a2         1 CLA      0.023000
     25 C1A        76.4902   58.0424   36.0487 ac         1 CLA     -0.015100
     26 C1B        77.3694   60.6759   39.3940 cr         1 CLA      0.054700
     27 C1C        73.4936   59.7306   41.2563 cn         1 CLA     -0.005600
     28 C1D        72.4411   57.4071   37.6498 ap         1 CLA     -0.047300
     29 O1A        79.3505   56.7420   31.5118 o2         1 CLA     -0.610800
     30 O1D        77.0114   55.4773   33.1365 o2         1 CLA     -0.558200
     31 C2         81.0155   54.8331   34.7013 c8         1 CLA     -0.325100
     32 C2A        77.7532   58.0406   35.3199 a1         1 CLA      0.098600
     33 C2B        77.8800   61.4961   40.4408 cb         1 CLA      0.088500
     34 C2C        72.3566   59.2496   42.0244 cb         1 CLA      0.053700
     35 C2D        71.9808   56.5071   36.6563 cb         1 CLA      0.058900
     36 O2A        79.9133   56.5649   33.7174 o1         1 CLA     -0.437200
     37 O2D        76.0937   54.3575   34.9639 o1         1 CLA     -0.357600
     38 C3         82.0136   53.9866   34.9264 c5         1 CLA      0.031200
     39 C3A        78.6751   58.9462   36.2455 a1         1 CLA      0.166800
     40 C3B        76.9307   61.4567   41.4691 cb         1 CLA      0.035000
     41 C3C        71.5850   58.4694   41.2132 cb         1 CLA     -0.089900
     42 C3D        73.1088   56.3743   35.8213 cb         1 CLA     -0.035900
     43 C4         81.7442   52.5307   35.4669 a3         1 CLA     -0.053300
     44 C4A        77.7049   59.4195   37.3166 ac         1 CLA      0.001800
     45 C4B        75.7388   60.8208   40.9311 cn         1 CLA     -0.020900
     46 C4C        72.2082   58.5034   39.9369 cr         1 CLA     -0.044400
     47 C4D        74.1282   57.2815   36.3209 c6         1 CLA     -0.046000
     48 C5         83.4661   54.3279   34.6605 a2         1 CLA     -0.070400
     49 C6         83.8991   55.7585   35.0473 a2         1 CLA      0.043900
     50 C7         83.8315   56.0311   36.5631 a2         1 CLA     -0.150000
     51 C8         84.0396   57.5418   36.9307 a1         1 CLA      0.064200
     52 C9         85.4349   58.0389   36.3846 a3         1 CLA     -0.259300
     53 C10        83.8929   57.7720   38.4240 a2         1 CLA     -0.071900
     54 C11        82.5154   57.5193   39.0633 a2         1 CLA      0.014500
     55 C12        82.5131   57.8239   40.5153 a2         1 CLA     -0.112100
     56 C13        81.2569   57.2816   41.3537 a1         1 CLA      0.089200
     57 C14        79.9669   58.1382   41.0527 a3         1 CLA     -0.239100
     58 C15        81.6562   57.2164   42.8942 a2         1 CLA     -0.102200
     59 C16        81.6204   58.5840   43.6668 a2         1 CLA      0.023900
     60 C17        82.2509   58.4865   45.1041 a2         1 CLA     -0.105700
     61 C18        82.5260   59.8286   45.7534 a1         1 CLA      0.206800
     62 C19        81.1702   60.5396   45.9985 a3         1 CLA     -0.280100
     63 C20        83.3513   59.7148   47.0423 a3         1 CLA     -0.280100
     64 NC         73.3173   59.3306   39.9171 nx         1 CLA     -0.309200
     65 MG         74.8716   59.2346   38.4757 mg         1 CLA      0.895000
     66 HMD3       70.6922   55.0863   35.7906 dc         1 CLA      0.064300
     67 HMD2       70.3668   55.3003   37.4377 dc         1 CLA      0.064300
     68 HMD1       69.8438   56.5990   36.3446 dc         1 CLA      0.064300
     69 HMC3       72.0142   60.4048   43.7519 dc         1 CLA      0.052100
     70 HMC2       71.5832   58.7109   43.9229 dc         1 CLA      0.052100
     71 HMC1       73.3703   59.1387   43.8603 dc         1 CLA      0.052100
     72 HMB3       79.5096   62.4494   39.4969 dc         1 CLA      0.063600
     73 HMB2       79.5756   62.7254   41.1668 dc         1 CLA      0.063600
     74 HMB1       79.9974   61.1162   40.4656 dc         1 CLA      0.063600
     75 HMA3       80.5231   59.0536   37.3033 dc         1 CLA      0.058300
     76 HMA2       79.5114   57.4846   37.5334 dc         1 CLA      0.058300
     77 HMA1       80.5872   57.8712   36.0254 dc         1 CLA      0.058300
     78 HED3       77.8196   53.3623   34.1458 dc         1 CLA      0.079300
     79 HED2       76.8260   52.3159   35.2375 dc         1 CLA      0.079300
     80 HED1       76.3225   52.6993   33.6627 dc         1 CLA      0.079300
     81 HBC3       71.0270   55.9180   40.7747 dc         1 CLA      0.016300
     82 HBC2       71.5724   56.3336   42.4582 dc         1 CLA      0.016300
     83 HBC1       69.9761   55.6385   42.1521 dc         1 CLA      0.016300
     84 HBB2       78.0545   62.4814   44.6500 da         1 CLA      0.183000
     85 HBB1       79.0817   61.7167   43.2998 da         1 CLA      0.183000
     86 HBA2       78.6366   59.2242   32.1290 dc         1 CLA      0.029400
     87 HBA1       79.7563   59.0293   33.5299 dc         1 CLA      0.029400
     88 HAC2       69.8860   58.1138   42.4157 dc         1 CLA      0.029300
     89 HAC1       69.5942   57.7031   40.7443 dc         1 CLA      0.029300
     90 HAA2       76.8129   58.1859   33.4058 dc         1 CLA      0.028700
     91 HAA1       77.4279   59.7620   33.9729 dc         1 CLA      0.028700
     92 H203       83.0650   60.6471   47.5786 dc         1 CLA      0.065600
     93 H202       82.9758   58.8055   47.5473 dc         1 CLA      0.065600
     94 H201       84.3678   59.6705   46.9244 dc         1 CLA      0.065600
     95 H193       80.4598   60.3445   45.2144 dc         1 CLA      0.065600
     96 H192       80.6513   60.1450   46.8396 dc         1 CLA      0.065600
     97 H191       81.2577   61.5743   46.2583 dc         1 CLA      0.065600
     98 H172       81.6139   57.8649   45.8237 dc         1 CLA      0.027600
     99 H171       83.2586   58.0185   45.0275 dc         1 CLA      0.027600
    100 H162       82.0514   59.3676   43.0635 dc         1 CLA      0.002900
    101 H161       80.5405   58.8657   43.7384 dc         1 CLA      0.002900
    102 H152       80.8617   56.6829   43.3857 dc         1 CLA      0.029100
    103 H151       82.6403   56.7548   43.0268 dc         1 CLA      0.029100
    104 H143       79.7762   58.0373   40.0012 dc         1 CLA      0.063600
    105 H142       79.1271   57.9689   41.6353 dc         1 CLA      0.063600
    106 H141       80.3227   59.1333   41.1436 dc         1 CLA      0.063600
    107 H122       83.4664   57.4105   40.9030 dc         1 CLA      0.032500
    108 H121       82.6129   58.8938   40.5942 dc         1 CLA      0.032500
    109 H112       81.8745   58.2123   38.5800 dc         1 CLA      0.006600
    110 H111       82.2162   56.4772   38.9298 dc         1 CLA      0.006600
    111 H102       84.6708   57.2529   38.9855 dc         1 CLA      0.024100
    112 H101       84.1593   58.8267   38.4297 dc         1 CLA      0.024100
    113 HHD        70.7449   57.3642   39.0288 da         1 CLA      0.174300
    114 HHC        74.3723   60.8489   42.7183 da         1 CLA      0.136800
    115 HHB        79.1317   60.7151   38.1425 da         1 CLA      0.138300
    116 HBD        74.8782   57.1300   33.6767 dc         1 CLA      0.107700
    117 HAB        75.9657   62.2290   43.1786 da         1 CLA      0.155200
    118 H93        85.3180   58.2031   35.3665 dc         1 CLA      0.069500
    119 H92        85.8002   58.9551   36.8755 dc         1 CLA      0.069500
    120 H91        86.1864   57.2504   36.4280 dc         1 CLA      0.069500
    121 H8         83.2942   58.1229   36.4472 dc         1 CLA      0.029300
    122 H72        82.8513   55.7174   36.9288 dc         1 CLA      0.044400
    123 H71        84.5977   55.4304   37.0947 dc         1 CLA      0.044400
    124 H62        84.9630   55.8490   34.8031 dc         1 CLA      0.015600
    125 H61        83.1983   56.4706   34.5311 dc         1 CLA      0.015600
    126 H52        84.0067   53.5527   35.1807 dc         1 CLA      0.033200
    127 H51        83.6836   54.3216   33.5827 dc         1 CLA      0.033200
    128 H43        80.6994   52.2547   35.3107 dc         1 CLA      0.037000
    129 H42        82.3034   51.8883   34.7875 dc         1 CLA      0.037000
    130 H41        82.0891   52.4553   36.5373 dc         1 CLA      0.037000
    131 H3A        78.9610   59.8214   35.6091 dc         1 CLA      0.041100
    132 H2A        78.1675   57.0114   35.1564 dc         1 CLA      0.083100
    133 H2         80.7619   55.3725   35.5530 da         1 CLA      0.180900
    134 H18        83.0220   60.4517   45.0824 dc         1 CLA     -0.003900
    135 H13        81.2095   56.2304   41.1586 dc         1 CLA      0.019700
    136 H12        79.5826   54.4973   33.4556 dc         1 CLA      0.120400
    137 H11        80.9025   55.0581   32.5163 dc         1 CLA      0.120400
    138 C1         67.9634   61.5101   49.4335 Z1         2 LUT      0.509236
    139 C2         67.5766   62.4194   50.5878 Z2         2 LUT     -0.434695
    140 C3         66.0870   62.5338   50.7559 Z3         2 LUT      0.437453
    141 O3         65.6199   63.3023   51.9211 S1         2 LUT     -0.547129
    142 C4         65.6188   63.2806   49.5697 Z4         2 LUT     -0.468603
    143 C5         66.2201   62.8667   48.2762 Z5         2 LUT      0.279246
    144 C6         67.2733   62.0287   48.1592 Z6         2 LUT     -0.305473
    145 C7         67.8471   61.6548   46.8363 Z7         2 LUT      0.069402
    146 C8         68.8567   62.2696   46.1931 Z8         2 LUT     -0.191631
    147 C9         69.3628   62.0341   44.8666 Z9         2 LUT      0.196698
    148 C10        70.3470   62.8559   44.3616 Y1         2 LUT     -0.208611
    149 C11        71.0106   62.8099   43.1071 Y2         2 LUT      0.030784
    150 C12        72.1641   63.4793   42.8534 Y3         2 LUT     -0.220316
    151 C13        72.9625   63.4513   41.6455 Y4         2 LUT      0.215937
    152 C14        74.1292   64.1683   41.6697 Y5         2 LUT     -0.185793
    153 C15        75.1897   64.2023   40.8048 Y6         2 LUT     -0.057835
    154 C16        67.5823   60.0696   49.7322 Y7         2 LUT     -0.405615
    155 C17        69.4357   61.5719   49.3828 Y7         2 LUT     -0.405615
    156 C18        65.8945   63.8885   47.1955 Y9         2 LUT     -0.369639
    157 C19        68.8573   60.7695   44.2218 W1         2 LUT     -0.333362
    158 C20        72.2898   62.9419   40.3852 W2         2 LUT     -0.323439
    159 C21        86.7900   65.6501   34.9078 Z1         2 LUT      0.406104
    160 C22        87.5381   65.0207   33.6780 Z2         2 LUT     -0.404965
    161 C23        87.8778   66.0339   32.5295 Z3         2 LUT      0.391255
    162 O23        88.6019   65.3954   31.4888 S1         2 LUT     -0.528210
    163 C24        86.6553   66.8966   32.1681 W6         2 LUT     -0.258361
    164 C25        85.5109   66.9995   32.8719 Z5         2 LUT      0.133546
    165 C26        85.4055   66.2874   34.2492 W8         2 LUT     -0.147008
    166 C27        84.4671   66.9072   35.2791 Z7         2 LUT      0.023843
    167 C28        83.4351   66.2282   35.8872 Z8         2 LUT     -0.216987
    168 C29        82.5198   66.6724   36.8982 Z9         2 LUT      0.206524
    169 C30        81.5776   65.8604   37.5219 Y1         2 LUT     -0.215556
    170 C31        80.7039   66.1389   38.6322 Y2         2 LUT      0.025142
    171 C32        79.6540   65.3238   38.9620 Y3         2 LUT     -0.212209
    172 C33        78.6394   65.5600   40.0401 Y4         2 LUT      0.240937
    173 C34        77.5315   64.7533   40.0908 Y5         2 LUT     -0.218862
    174 C35        76.3606   64.9081   40.9769 Y6         2 LUT     -0.023547
    175 C36        87.7098   66.6212   35.5593 Y7         2 LUT     -0.393485
    176 C37        86.4962   64.4437   35.9163 Y7         2 LUT     -0.393485
    177 C38        84.4209   67.9530   32.4248 Y9         2 LUT     -0.387526
    178 C39        82.7373   68.1450   37.2760 W1         2 LUT     -0.322618
    179 C40        78.9301   66.6292   41.0544 W2         2 LUT     -0.358472
    180 H403       78.4792   67.6004   40.8137 R7         2 LUT      0.097720
    181 H402       78.5299   66.4987   42.0301 R7         2 LUT      0.097720
    182 H401       80.0502   66.7832   41.2415 R7         2 LUT      0.097720
    183 H393       81.9986   68.5338   37.9377 R4         2 LUT      0.082505
    184 H392       83.7725   68.3510   37.6614 R4         2 LUT      0.082505
    185 H391       82.8202   68.8101   36.4176 R4         2 LUT      0.082505
    186 H383       84.7427   68.9733   32.6444 R1         2 LUT      0.104030
    187 H382       84.4557   67.9148   31.3267 R1         2 LUT      0.104030
    188 H381       83.3957   67.6860   32.7332 R1         2 LUT      0.104030
    189 H373       87.4135   64.0309   36.2788 T4         2 LUT      0.089537
    190 H372       85.8706   64.7524   36.6918 T4         2 LUT      0.089537
    191 H371       85.9582   63.6083   35.4705 T4         2 LUT      0.089537
    192 H363       88.6645   66.2357   35.9257 T4         2 LUT      0.089537
    193 H362       87.9551   67.4233   34.8430 T4         2 LUT      0.089537
    194 H361       87.0955   67.1455   36.2703 T4         2 LUT      0.089537
    195 H222       88.5081   64.6342   33.9492 U2         2 LUT      0.127376
    196 H221       87.0258   64.1481   33.2780 U2         2 LUT      0.127376
    197 H203       72.8115   63.2742   39.3947 R7         2 LUT      0.087068
    198 H202       72.3578   61.8300   40.3530 R7         2 LUT      0.087068
    199 H201       71.2714   63.2435   40.2495 R7         2 LUT      0.087068
    200 H193       69.1702   60.7605   43.1826 R4         2 LUT      0.089716
    201 H192       69.3042   59.8355   44.5446 R4         2 LUT      0.089716
    202 H191       67.8552   60.6986   44.2302 R4         2 LUT      0.089716
    203 H183       65.8644   63.3044   46.2372 R1         2 LUT      0.094572
    204 H182       64.8927   64.3586   47.3409 R1         2 LUT      0.094572
    205 H181       66.6330   64.6777   47.0679 R1         2 LUT      0.094572
    206 H173       69.9640   61.4837   50.2923 T4         2 LUT      0.093752
    207 H172       69.9090   60.8265   48.7365 T4         2 LUT      0.093752
    208 H171       69.7237   62.5646   49.0705 T4         2 LUT      0.093752
    209 H163       68.0927   59.6192   50.6334 T4         2 LUT      0.093752
    210 H162       66.5467   59.7341   49.9014 T4         2 LUT      0.093752
    211 H161       67.9242   59.4754   48.8562 T4         2 LUT      0.093752
    212 HO3        65.5946   62.7654   52.6978 Q1         2 LUT      0.300121
    213 H8         69.1678   63.2214   46.6225 U7         2 LUT      0.080784
    214 H7         67.6284   60.7141   46.5310 U6         2 LUT      0.042190
    215 H42        64.5368   63.3190   49.5151 U5         2 LUT      0.145166
    216 H41        65.7906   64.3512   49.7545 U5         2 LUT      0.145166
    217 H35        76.4407   65.6032   41.8415 T3         2 LUT      0.077919
    218 H34        77.5917   64.0199   39.3204 T2         2 LUT      0.073626
    219 H32        79.4693   64.3961   38.3595 T1         2 LUT      0.092510
    220 H31        80.8040   67.0926   39.1619 U9         2 LUT      0.070048
    221 H30        81.4925   64.8138   37.1932 U8         2 LUT      0.085442
    222 H3         65.6955   61.5613   50.8147 U3         2 LUT     -0.031596
    223 H28        83.2629   65.2079   35.6153 U7         2 LUT      0.084728
    224 H27        84.5976   68.0128   35.5318 U6         2 LUT      0.087291
    225 H26        84.9039   65.3959   33.9241 Q6         2 LUT      0.075325
    226 H24        86.9737   67.5895   31.4045 Q5         2 LUT      0.094482
    227 H23        88.7026   66.6866   32.9784 U3         2 LUT     -0.024869
    228 H22        68.0199   61.9708   51.5355 U2         2 LUT      0.127376
    229 H21        67.8867   63.4789   50.4987 U2         2 LUT      0.127376
    230 H15        75.2183   63.5939   39.9364 T3         2 LUT      0.093200
    231 H14        74.3586   64.8321   42.4765 T2         2 LUT      0.068865
    232 H12        72.5600   64.1349   43.6170 T1         2 LUT      0.095507
    233 H11        70.5660   62.1856   42.2892 U9         2 LUT      0.068930
    234 H10        70.7011   63.6477   45.0671 U8         2 LUT      0.083911
    235 H1         88.0464   65.0426   30.7915 Q1         2 LUT      0.297311
@<TRIPOS>BOND
    1     6     1 1
    2     7     2 1
    3     8     3 1
    4     9     4 1
    5    11     4 1
    6    12     6 1
    7    13     9 1
    8    16     9 1
    9    25     5 1
   10    25    16 1
   11    26    10 1
   12    26    17 1
   13    27    18 1
   14    28    14 1
   15    28    19 1
   16    29    12 1
   17    30    13 1
   18    31    24 1
   19    32     1 1
   20    32    25 1
   21    33    21 1
   22    33    26 1
   23    34    22 1
   24    34    27 1
   25    35    23 1
   26    35    28 1
   27    36    12 1
   28    36    24 1
   29    37    13 1
   30    37    15 1
   31    38    31 1
   32    39    20 1
   33    39    32 1
   34    40     2 1
   35    40    33 1
   36    41     3 1
   37    41    34 1
   38    42     4 1
   39    42    35 1
   40    43    38 1
   41    44     5 1
   42    44    17 1
   43    44    39 1
   44    45    10 1
   45    45    18 1
   46    45    40 1
   47    46    19 1
   48    46    41 1
   49    47    14 1
   50    47    16 1
   51    47    42 1
   52    48    38 1
   53    49    48 1
   54    50    49 1
   55    51    50 1
   56    52    51 1
   57    53    51 1
   58    54    53 1
   59    55    54 1
   60    56    55 1
   61    57    56 1
   62    58    56 1
   63    59    58 1
   64    60    59 1
   65    61    60 1
   66    62    61 1
   67    63    61 1
   68    64    27 1
   69    64    46 1
   70    65     5 1
   71    65    10 1
   72    65    64 1
   73    65    14 1
   74    66    23 1
   75    67    23 1
   76    68    23 1
   77    69    22 1
   78    70    22 1
   79    71    22 1
   80    72    21 1
   81    73    21 1
   82    74    21 1
   83    75    20 1
   84    76    20 1
   85    77    20 1
   86    78    15 1
   87    79    15 1
   88    80    15 1
   89    81     8 1
   90    82     8 1
   91    83     8 1
   92    84     7 1
   93    85     7 1
   94    86     6 1
   95    87     6 1
   96    88     3 1
   97    89     3 1
   98    90     1 1
   99    91     1 1
  100    92    63 1
  101    93    63 1
  102    94    63 1
  103    95    62 1
  104    96    62 1
  105    97    62 1
  106    98    60 1
  107    99    60 1
  108   100    59 1
  109   101    59 1
  110   102    58 1
  111   103    58 1
  112   104    57 1
  113   105    57 1
  114   106    57 1
  115   107    55 1
  116   108    55 1
  117   109    54 1
  118   110    54 1
  119   111    53 1
  120   112    53 1
  121   113    19 1
  122   114    18 1
  123   115    17 1
  124   116     9 1
  125   117     2 1
  126   118    52 1
  127   119    52 1
  128   120    52 1
  129   121    51 1
  130   122    50 1
  131   123    50 1
  132   124    49 1
  133   125    49 1
  134   126    48 1
  135   127    48 1
  136   128    43 1
  137   129    43 1
  138   130    43 1
  139   131    39 1
  140   132    32 1
  141   133    31 1
  142   134    61 1
  143   135    56 1
  144   136    24 1
  145   137    24 1
  146   139   138 1
  147   140   139 1
  148   141   140 1
  149   142   140 1
  150   143   142 1
  151   144   138 1
  152   144   143 1
  153   145   144 1
  154   146   145 1
  155   147   146 1
  156   148   147 1
  157   149   148 1
  158   150   149 1
  159   151   150 1
  160   152   151 1
  161   153   152 1
  162   154   138 1
  163   155   138 1
  164   156   143 1
  165   157   147 1
  166   158   151 1
  167   160   159 1
  168   161   160 1
  169   162   161 1
  170   163   161 1
  171   164   163 1
  172   165   159 1
  173   165   164 1
  174   166   165 1
  175   167   166 1
  176   168   167 1
  177   169   168 1
  178   170   169 1
  179   171   170 1
  180   172   171 1
  181   173   172 1
  182   174   153 1
  183   174   173 1
  184   175   159 1
  185   176   159 1
  186   177   164 1
  187   178   168 1
  188   179   172 1
  189   180   179 1
  190   181   179 1
  191   182   179 1
  192   183   178 1
  193   184   178 1
  194   185   178 1
  195   186   177 1
  196   187   177 1
  197   188   177 1
  198   189   176 1
  199   190   176 1
  200   191   176 1
  201   192   175 1
  202   193   175 1
  203   194   175 1
  204   195   160 1
  205   196   160 1
  206   197   158 1
  207   198   158 1
  208   199   158 1
  209   200   157 1
  210   201   157 1
  211   202   157 1
  212   203   156 1
  213   204   156 1
  214   205   156 1
  215   206   155 1
  216   207   155 1
  217   208   155 1
  218   209   154 1
  219   210   154 1
  220   211   154 1
  221   212   141 1
  222   213   146 1
  223   214   145 1
  224   215   142 1
  225   216   142 1
  226   217   174 1
  227   218   173 1
  228   219   171 1
  229   220   170 1
  230   221   169 1
  231   222   140 1
  232   223   167 1
  233   224   166 1
  234   225   165 1
  235   226   163 1
  236   227   161 1
  237   228   139 1
  238   229   139 1
  239   230   153 1
  240   231   152 1
  241   232   150 1
  242   233   149 1
  243   234   148 1
  244   235   162 1
  245   65    153 1
  246   65    174 1
@<TRIPOS>SUBSTRUCTURE
      1 CLA               1 ****               0 ****  **** 
      2 LUT             138 ****               0 ****  **** 
