@<TRIPOS>MOLECULE
Cpptraj generated mol2 file.
  235   246     2     0     0
SMALL
USER_CHARGES


@<TRIPOS>ATOM
      1 CAA        77.7137   58.5396   35.2938 a2         1 CLA     -0.055900
      2 CAB        78.0201   62.3707   44.3157 c8         1 CLA     -0.148500
      3 CAC        71.1336   58.2357   44.1164 a2         1 CLA     -0.012600
      4 CAD        73.8649   55.7148   36.7525 ck         1 CLA      0.398800
      5 NA         76.8430   58.9430   38.6852 ns         1 CLA     -0.225500
      6 CBA        79.0200   58.5953   34.4551 a2         1 CLA     -0.135000
      7 CBB        79.1435   62.7287   44.9382 c0         1 CLA     -0.395200
      8 CBC        71.0452   56.6830   44.0741 a3         1 CLA     -0.037700
      9 CBD        75.2661   56.2680   36.3890 a1         1 CLA     -0.053900
     10 NB         76.9284   60.3055   41.4268 nm         1 CLA     -0.295700
     11 OBD        73.2920   54.8597   36.1277 o2         1 CLA     -0.494600
     12 CGA        79.5595   57.2238   33.9782 c4         1 CLA      0.827000
     13 CGD        76.2765   55.0519   36.4549 c4         1 CLA      0.655300
     14 ND         74.1408   57.9814   39.4388 nm         1 CLA     -0.291600
     15 CED        77.1922   53.2756   37.7498 a3         1 CLA      0.005400
     16 CHA        75.5349   57.3679   37.4153 cs         1 CLA     -0.123800
     17 CHB        78.5421   60.5418   39.5549 aa         1 CLA     -0.291900
     18 CHC        75.6075   60.4499   43.5425 aa         1 CLA     -0.090400
     19 CHD        72.2161   57.9413   41.0914 aa         1 CLA     -0.052000
     20 CMA        80.3238   58.6337   37.9313 a3         1 CLA     -0.230700
     21 CMB        80.0881   62.5033   41.6404 a3         1 CLA     -0.180800
     22 CMC        73.4172   59.8654   45.7167 a3         1 CLA     -0.134000
     23 CMD        70.9572   56.0354   38.9436 a3         1 CLA     -0.141100
     24 C1         80.7595   55.2788   34.6175 a2         1 CLA      0.023000
     25 C1A        76.6685   58.1581   37.5915 ac         1 CLA     -0.015100
     26 C1B        78.1206   60.7608   40.8977 cr         1 CLA      0.054700
     27 C1C        74.4260   59.7151   43.2830 cn         1 CLA     -0.005600
     28 C1D        72.8349   57.5466   39.8278 ap         1 CLA     -0.047300
     29 O1A        79.2649   56.6939   32.9472 o2         1 CLA     -0.610800
     30 O1D        77.1825   54.8518   35.5984 o2         1 CLA     -0.558200
     31 C2         81.1762   54.6880   35.9950 c8         1 CLA     -0.325100
     32 C2A        77.9433   58.1224   36.7801 a1         1 CLA      0.098600
     33 C2B        78.7696   61.6406   41.8657 cb         1 CLA      0.088500
     34 C2C        73.4240   59.4686   44.2203 cb         1 CLA      0.053700
     35 C2D        72.3427   56.6261   38.8505 cb         1 CLA      0.058900
     36 O2A        80.3583   56.5949   34.9351 o1         1 CLA     -0.437200
     37 O2D        76.1337   54.2315   37.5375 o1         1 CLA     -0.357600
     38 C3         82.4846   54.7060   36.3807 c5         1 CLA      0.031200
     39 C3A        78.9160   59.1266   37.5048 a1         1 CLA      0.166800
     40 C3B        77.8986   61.5881   43.0300 cb         1 CLA      0.035000
     41 C3C        72.4572   58.7230   43.5194 cb         1 CLA     -0.089900
     42 C3D        73.4380   56.4287   37.9524 cb         1 CLA     -0.035900
     43 C4         83.5398   53.7618   35.8724 a3         1 CLA     -0.053300
     44 C4A        78.0602   59.5864   38.6675 ac         1 CLA      0.001800
     45 C4B        76.7299   60.7322   42.7041 cn         1 CLA     -0.020900
     46 C4C        72.8768   58.5835   42.1873 cr         1 CLA     -0.044400
     47 C4D        74.4459   57.3283   38.3150 c6         1 CLA     -0.046000
     48 C5         82.8563   55.8340   37.3501 a2         1 CLA     -0.070400
     49 C6         84.1551   55.7084   38.1420 a2         1 CLA      0.043900
     50 C7         84.2819   56.7680   39.2224 a2         1 CLA     -0.150000
     51 C8         84.2243   58.2084   38.7791 a1         1 CLA      0.064200
     52 C9         85.3020   58.5307   37.7335 a3         1 CLA     -0.259300
     53 C10        84.4869   59.1841   39.9793 a2         1 CLA     -0.071900
     54 C11        83.5224   59.0515   41.1373 a2         1 CLA      0.014500
     55 C12        83.6415   60.1831   42.1593 a2         1 CLA     -0.112100
     56 C13        84.9362   60.3079   42.9782 a1         1 CLA      0.089200
     57 C14        85.3817   58.9690   43.7032 a3         1 CLA     -0.239100
     58 C15        84.9631   61.5347   43.9460 a2         1 CLA     -0.102200
     59 C16        83.6846   61.7247   44.9018 a2         1 CLA      0.023900
     60 C17        83.8343   63.0134   45.8139 a2         1 CLA     -0.105700
     61 C18        82.5479   63.5189   46.5824 a1         1 CLA      0.206800
     62 C19        81.9481   62.5325   47.5587 a3         1 CLA     -0.280100
     63 C20        82.9882   64.6945   47.4624 a3         1 CLA     -0.280100
     64 NC         74.1023   59.1991   42.0202 nx         1 CLA     -0.309200
     65 MG         75.3456   59.2043   40.2768 mg         1 CLA      0.895000
     66 HMD3       70.8588   55.2552   38.2584 dc         1 CLA      0.064300
     67 HMD2       70.7943   55.7325   39.9348 dc         1 CLA      0.064300
     68 HMD1       70.2904   56.7903   38.5384 dc         1 CLA      0.064300
     69 HMC3       72.6360   60.5684   45.8480 dc         1 CLA      0.052100
     70 HMC2       73.2311   58.8930   46.3255 dc         1 CLA      0.052100
     71 HMC1       74.1665   60.4789   46.0587 dc         1 CLA      0.052100
     72 HMB3       80.8381   61.9512   42.2270 dc         1 CLA      0.063600
     73 HMB2       80.2388   62.6308   40.4991 dc         1 CLA      0.063600
     74 HMB1       79.8665   63.4865   42.0477 dc         1 CLA      0.063600
     75 HMA3       80.7894   59.1334   38.6466 dc         1 CLA      0.058300
     76 HMA2       80.0462   57.7251   38.4581 dc         1 CLA      0.058300
     77 HMA1       80.8652   58.4773   37.0341 dc         1 CLA      0.058300
     78 HED3       76.9820   52.8638   38.6873 dc         1 CLA      0.079300
     79 HED2       77.0242   52.3691   37.1453 dc         1 CLA      0.079300
     80 HED1       78.1839   53.7291   37.6122 dc         1 CLA      0.079300
     81 HBC3       69.9973   56.4389   44.1599 dc         1 CLA      0.016300
     82 HBC2       71.4073   56.2487   43.1543 dc         1 CLA      0.016300
     83 HBC1       71.6578   56.1623   44.8455 dc         1 CLA      0.016300
     84 HBB2       79.1331   63.1938   45.9111 da         1 CLA      0.183000
     85 HBB1       80.1160   62.3647   44.5918 da         1 CLA      0.183000
     86 HBA2       78.7883   59.0850   33.4583 dc         1 CLA      0.029400
     87 HBA1       79.8235   59.0742   34.9254 dc         1 CLA      0.029400
     88 HAC2       70.8881   58.7100   45.0628 dc         1 CLA      0.029300
     89 HAC1       70.3165   58.5850   43.4437 dc         1 CLA      0.029300
     90 HAA2       77.2288   57.7546   34.7897 dc         1 CLA      0.028700
     91 HAA1       77.2307   59.5354   35.3105 dc         1 CLA      0.028700
     92 H203       83.8129   64.4014   48.1097 dc         1 CLA      0.065600
     93 H202       83.4502   65.3941   46.7730 dc         1 CLA      0.065600
     94 H201       82.1443   65.1566   48.0718 dc         1 CLA      0.065600
     95 H193       81.5390   61.6673   47.1403 dc         1 CLA      0.065600
     96 H192       82.6370   62.3130   48.3512 dc         1 CLA      0.065600
     97 H191       81.1591   63.0313   48.0200 dc         1 CLA      0.065600
     98 H172       84.5716   62.6594   46.5080 dc         1 CLA      0.027600
     99 H171       84.1507   63.8291   45.1315 dc         1 CLA      0.027600
    100 H162       82.9135   61.8839   44.1716 dc         1 CLA      0.002900
    101 H161       83.5622   60.8533   45.4630 dc         1 CLA      0.002900
    102 H152       85.9236   61.4975   44.3823 dc         1 CLA      0.029100
    103 H151       84.9823   62.4713   43.3587 dc         1 CLA      0.029100
    104 H143       86.0697   59.1057   44.4611 dc         1 CLA      0.063600
    105 H142       84.4560   58.8426   44.2567 dc         1 CLA      0.063600
    106 H141       85.5935   58.1427   43.0151 dc         1 CLA      0.063600
    107 H122       83.3945   61.0900   41.5719 dc         1 CLA      0.032500
    108 H121       82.8586   60.0040   42.8802 dc         1 CLA      0.032500
    109 H112       82.4584   58.9841   40.8834 dc         1 CLA      0.006600
    110 H111       83.7645   58.1245   41.6951 dc         1 CLA      0.006600
    111 H102       85.4784   59.1045   40.3736 dc         1 CLA      0.024100
    112 H101       84.4035   60.2356   39.6459 dc         1 CLA      0.024100
    113 HHD        71.3270   57.4270   41.3512 da         1 CLA      0.174300
    114 HHC        75.7745   60.8098   44.5619 da         1 CLA      0.136800
    115 HHB        79.5003   60.9191   39.3377 da         1 CLA      0.138300
    116 HBD        75.2588   56.7119   35.3780 dc         1 CLA      0.107700
    117 HAB        77.0766   62.7169   44.8052 da         1 CLA      0.155200
    118 H93        85.0285   58.0702   36.7729 dc         1 CLA      0.069500
    119 H92        85.2620   59.6305   37.5392 dc         1 CLA      0.069500
    120 H91        86.2685   58.4143   38.1843 dc         1 CLA      0.069500
    121 H8         83.2705   58.3280   38.2285 dc         1 CLA      0.029300
    122 H72        83.4850   56.6198   39.9633 dc         1 CLA      0.044400
    123 H71        85.2721   56.6332   39.6619 dc         1 CLA      0.044400
    124 H62        84.0794   54.7622   38.6436 dc         1 CLA      0.015600
    125 H61        85.0052   55.7412   37.4700 dc         1 CLA      0.015600
    126 H52        82.9428   56.6629   36.6992 dc         1 CLA      0.033200
    127 H51        82.0110   55.9297   38.0009 dc         1 CLA      0.033200
    128 H43        83.3298   53.2727   34.9822 dc         1 CLA      0.037000
    129 H42        84.4697   54.4128   35.8358 dc         1 CLA      0.037000
    130 H41        83.7199   52.9170   36.5415 dc         1 CLA      0.037000
    131 H3A        79.0717   60.1512   37.0243 dc         1 CLA      0.041100
    132 H2A        78.5729   57.1658   36.8552 dc         1 CLA      0.083100
    133 H2         80.6082   53.9598   36.6025 da         1 CLA      0.180900
    134 H18        81.7594   63.8578   45.8662 dc         1 CLA     -0.003900
    135 H13        85.7771   60.5011   42.2810 dc         1 CLA      0.019700
    136 H12        79.9142   54.7328   34.1880 dc         1 CLA      0.120400
    137 H11        81.6236   55.2755   33.9631 dc         1 CLA      0.120400
    138 C1         67.1016   61.8985   50.9199 Z1         2 LUT      0.509236
    139 C2         67.0712   63.1726   51.7573 Z2         2 LUT     -0.434695
    140 C3         65.7521   63.9812   51.9270 Z3         2 LUT      0.437453
    141 O3         66.0672   65.2247   52.5770 S1         2 LUT     -0.547129
    142 C4         65.1063   64.0589   50.5817 Z4         2 LUT     -0.468603
    143 C5         65.8023   63.4260   49.4203 Z5         2 LUT      0.279246
    144 C6         66.6795   62.3893   49.4688 Z6         2 LUT     -0.305473
    145 C7         67.5890   61.9845   48.3388 Z7         2 LUT      0.069402
    146 C8         68.5116   62.7630   47.6454 Z8         2 LUT     -0.191631
    147 C9         69.3279   62.3899   46.5008 Z9         2 LUT      0.196698
    148 C10        70.2278   63.2980   45.8286 Y1         2 LUT     -0.208611
    149 C11        71.0288   63.0387   44.6755 Y2         2 LUT      0.030784
    150 C12        72.1808   63.7275   44.3611 Y3         2 LUT     -0.220316
    151 C13        73.1240   63.5994   43.2619 Y4         2 LUT      0.215937
    152 C14        74.2565   64.3774   43.3580 Y5         2 LUT     -0.185793
    153 C15        75.2920   64.3613   42.3486 Y6         2 LUT     -0.057835
    154 C16        66.0294   61.0080   51.4874 Y7         2 LUT     -0.405615
    155 C17        68.4979   61.1971   51.0422 Y7         2 LUT     -0.405615
    156 C18        65.6250   64.2401   48.1116 Y9         2 LUT     -0.369639
    157 C19        69.0635   61.0223   45.9532 W1         2 LUT     -0.333362
    158 C20        72.6591   62.8776   42.0383 W2         2 LUT     -0.323439
    159 C21        86.5666   65.9506   36.0959 Z1         2 LUT      0.406104
    160 C22        87.2888   65.3584   34.9176 Z2         2 LUT     -0.404965
    161 C23        87.5685   66.2793   33.7692 Z3         2 LUT      0.391255
    162 O23        88.0395   65.4847   32.6354 S1         2 LUT     -0.528210
    163 C24        86.1958   67.0306   33.6143 W6         2 LUT     -0.258361
    164 C25        85.0839   67.1162   34.3857 Z5         2 LUT      0.133546
    165 C26        85.1185   66.3220   35.6854 W8         2 LUT     -0.147008
    166 C27        84.3680   67.1098   36.8625 Z7         2 LUT      0.023843
    167 C28        83.0772   66.7939   37.1251 Z8         2 LUT     -0.216987
    168 C29        82.3403   67.2992   38.3119 Z9         2 LUT      0.206524
    169 C30        81.2264   66.5748   38.6805 Y1         2 LUT     -0.215556
    170 C31        80.4625   66.7625   39.8296 Y2         2 LUT      0.025142
    171 C32        79.3803   65.9586   40.1743 Y3         2 LUT     -0.212209
    172 C33        78.5058   66.1717   41.3327 Y4         2 LUT      0.240937
    173 C34        77.5011   65.2485   41.5404 Y5         2 LUT     -0.218862
    174 C35        76.3678   65.2731   42.4493 Y6         2 LUT     -0.023547
    175 C36        87.4762   67.0991   36.7311 Y7         2 LUT     -0.393485
    176 C37        86.4560   64.8085   37.0424 Y7         2 LUT     -0.393485
    177 C38        83.8606   67.8889   34.0427 Y9         2 LUT     -0.387526
    178 C39        82.8324   68.5827   39.0347 W1         2 LUT     -0.322618
    179 C40        78.6951   67.2615   42.3349 W2         2 LUT     -0.358472
    180 H403       79.7137   67.5424   42.3315 R7         2 LUT      0.097720
    181 H402       78.1023   68.0567   42.0400 R7         2 LUT      0.097720
    182 H401       78.4706   66.8343   43.3101 R7         2 LUT      0.097720
    183 H393       83.5747   68.3343   39.8218 R4         2 LUT      0.082505
    184 H392       83.4526   69.2790   38.4839 R4         2 LUT      0.082505
    185 H391       82.0207   69.1778   39.5012 R4         2 LUT      0.082505
    186 H383       83.8101   68.7513   34.6973 R1         2 LUT      0.104030
    187 H382       83.8713   68.3621   33.0392 R1         2 LUT      0.104030
    188 H381       83.0048   67.2281   34.1852 R1         2 LUT      0.104030
    189 H373       87.4654   64.2402   37.2175 T4         2 LUT      0.089537
    190 H372       86.1858   65.0715   38.0380 T4         2 LUT      0.089537
    191 H371       85.6770   64.1378   36.7452 T4         2 LUT      0.089537
    192 H363       88.5147   66.6702   36.8774 T4         2 LUT      0.089537
    193 H362       87.5788   67.9889   36.0347 T4         2 LUT      0.089537
    194 H361       87.1800   67.4592   37.7462 T4         2 LUT      0.089537
    195 H222       88.2700   65.0131   35.3069 U2         2 LUT      0.127376
    196 H221       86.6393   64.4875   34.5342 U2         2 LUT      0.127376
    197 H203       71.8116   63.3821   41.5662 R7         2 LUT      0.087068
    198 H202       73.3391   62.7972   41.1477 R7         2 LUT      0.087068
    199 H201       72.2658   61.9002   42.3631 R7         2 LUT      0.087068
    200 H193       68.0319   60.7371   45.9644 R4         2 LUT      0.089716
    201 H192       69.2960   60.8222   44.9018 R4         2 LUT      0.089716
    202 H191       69.6335   60.2774   46.5655 R4         2 LUT      0.089716
    203 H183       65.9563   63.6767   47.1991 R1         2 LUT      0.094572
    204 H182       64.6087   64.4928   47.9919 R1         2 LUT      0.094572
    205 H181       66.2675   65.1325   48.1857 R1         2 LUT      0.094572
    206 H173       68.7185   61.0206   52.0789 T4         2 LUT      0.093752
    207 H172       68.5109   60.2412   50.4596 T4         2 LUT      0.093752
    208 H171       69.2799   61.8471   50.7051 T4         2 LUT      0.093752
    209 H163       66.0655   60.0749   50.9228 T4         2 LUT      0.093752
    210 H162       66.0865   60.8109   52.5400 T4         2 LUT      0.093752
    211 H161       65.0386   61.4519   51.2824 T4         2 LUT      0.093752
    212 HO3        65.3262   65.4505   53.1492 Q1         2 LUT      0.300121
    213 H8         68.5531   63.8423   47.9541 U7         2 LUT      0.080784
    214 H7         67.3984   60.8955   48.0757 U6         2 LUT      0.042190
    215 H42        64.0478   63.6769   50.5778 U5         2 LUT      0.145166
    216 H41        64.8125   65.0824   50.3918 U5         2 LUT      0.145166
    217 H35        76.3278   66.1065   43.1693 T3         2 LUT      0.077919
    218 H34        77.3534   64.4709   40.7352 T2         2 LUT      0.073626
    219 H32        79.1941   65.0848   39.5432 T1         2 LUT      0.092510
    220 H31        80.6710   67.6629   40.4759 U9         2 LUT      0.070048
    221 H30        80.9487   65.7053   38.0794 U8         2 LUT      0.085442
    222 H3         65.1081   63.3851   52.5774 U3         2 LUT     -0.031596
    223 H28        82.4015   66.5669   36.3161 U7         2 LUT      0.084728
    224 H27        85.0146   67.7646   37.3859 U6         2 LUT      0.087291
    225 H26        84.6326   65.4615   35.4035 Q6         2 LUT      0.075325
    226 H24        86.3383   67.6270   32.7059 Q5         2 LUT      0.094482
    227 H23        88.1661   67.1291   34.1007 U3         2 LUT     -0.024869
    228 H22        67.3641   62.9427   52.8446 U2         2 LUT      0.127376
    229 H21        67.8129   63.8053   51.2029 U2         2 LUT      0.127376
    230 H15        75.3671   63.6239   41.5513 T3         2 LUT      0.093200
    231 H14        74.4010   64.9358   44.3206 T2         2 LUT      0.068865
    232 H12        72.4039   64.4465   45.1754 T1         2 LUT      0.095507
    233 H11        70.7751   62.2622   44.0277 U9         2 LUT      0.068930
    234 H10        70.3661   64.2665   46.3306 U8         2 LUT      0.083911
    235 H1         87.2953   65.1393   32.0605 Q1         2 LUT      0.297311
@<TRIPOS>BOND
    1     6     1 1
    2     7     2 1
    3     8     3 1
    4     9     4 1
    5    11     4 1
    6    12     6 1
    7    13     9 1
    8    16     9 1
    9    25     5 1
   10    25    16 1
   11    26    10 1
   12    26    17 1
   13    27    18 1
   14    28    14 1
   15    28    19 1
   16    29    12 1
   17    30    13 1
   18    31    24 1
   19    32     1 1
   20    32    25 1
   21    33    21 1
   22    33    26 1
   23    34    22 1
   24    34    27 1
   25    35    23 1
   26    35    28 1
   27    36    12 1
   28    36    24 1
   29    37    13 1
   30    37    15 1
   31    38    31 1
   32    39    20 1
   33    39    32 1
   34    40     2 1
   35    40    33 1
   36    41     3 1
   37    41    34 1
   38    42     4 1
   39    42    35 1
   40    43    38 1
   41    44     5 1
   42    44    17 1
   43    44    39 1
   44    45    10 1
   45    45    18 1
   46    45    40 1
   47    46    19 1
   48    46    41 1
   49    47    14 1
   50    47    16 1
   51    47    42 1
   52    48    38 1
   53    49    48 1
   54    50    49 1
   55    51    50 1
   56    52    51 1
   57    53    51 1
   58    54    53 1
   59    55    54 1
   60    56    55 1
   61    57    56 1
   62    58    56 1
   63    59    58 1
   64    60    59 1
   65    61    60 1
   66    62    61 1
   67    63    61 1
   68    64    27 1
   69    64    46 1
   70    65     5 1
   71    65    10 1
   72    65    64 1
   73    65    14 1
   74    66    23 1
   75    67    23 1
   76    68    23 1
   77    69    22 1
   78    70    22 1
   79    71    22 1
   80    72    21 1
   81    73    21 1
   82    74    21 1
   83    75    20 1
   84    76    20 1
   85    77    20 1
   86    78    15 1
   87    79    15 1
   88    80    15 1
   89    81     8 1
   90    82     8 1
   91    83     8 1
   92    84     7 1
   93    85     7 1
   94    86     6 1
   95    87     6 1
   96    88     3 1
   97    89     3 1
   98    90     1 1
   99    91     1 1
  100    92    63 1
  101    93    63 1
  102    94    63 1
  103    95    62 1
  104    96    62 1
  105    97    62 1
  106    98    60 1
  107    99    60 1
  108   100    59 1
  109   101    59 1
  110   102    58 1
  111   103    58 1
  112   104    57 1
  113   105    57 1
  114   106    57 1
  115   107    55 1
  116   108    55 1
  117   109    54 1
  118   110    54 1
  119   111    53 1
  120   112    53 1
  121   113    19 1
  122   114    18 1
  123   115    17 1
  124   116     9 1
  125   117     2 1
  126   118    52 1
  127   119    52 1
  128   120    52 1
  129   121    51 1
  130   122    50 1
  131   123    50 1
  132   124    49 1
  133   125    49 1
  134   126    48 1
  135   127    48 1
  136   128    43 1
  137   129    43 1
  138   130    43 1
  139   131    39 1
  140   132    32 1
  141   133    31 1
  142   134    61 1
  143   135    56 1
  144   136    24 1
  145   137    24 1
  146   139   138 1
  147   140   139 1
  148   141   140 1
  149   142   140 1
  150   143   142 1
  151   144   138 1
  152   144   143 1
  153   145   144 1
  154   146   145 1
  155   147   146 1
  156   148   147 1
  157   149   148 1
  158   150   149 1
  159   151   150 1
  160   152   151 1
  161   153   152 1
  162   154   138 1
  163   155   138 1
  164   156   143 1
  165   157   147 1
  166   158   151 1
  167   160   159 1
  168   161   160 1
  169   162   161 1
  170   163   161 1
  171   164   163 1
  172   165   159 1
  173   165   164 1
  174   166   165 1
  175   167   166 1
  176   168   167 1
  177   169   168 1
  178   170   169 1
  179   171   170 1
  180   172   171 1
  181   173   172 1
  182   174   153 1
  183   174   173 1
  184   175   159 1
  185   176   159 1
  186   177   164 1
  187   178   168 1
  188   179   172 1
  189   180   179 1
  190   181   179 1
  191   182   179 1
  192   183   178 1
  193   184   178 1
  194   185   178 1
  195   186   177 1
  196   187   177 1
  197   188   177 1
  198   189   176 1
  199   190   176 1
  200   191   176 1
  201   192   175 1
  202   193   175 1
  203   194   175 1
  204   195   160 1
  205   196   160 1
  206   197   158 1
  207   198   158 1
  208   199   158 1
  209   200   157 1
  210   201   157 1
  211   202   157 1
  212   203   156 1
  213   204   156 1
  214   205   156 1
  215   206   155 1
  216   207   155 1
  217   208   155 1
  218   209   154 1
  219   210   154 1
  220   211   154 1
  221   212   141 1
  222   213   146 1
  223   214   145 1
  224   215   142 1
  225   216   142 1
  226   217   174 1
  227   218   173 1
  228   219   171 1
  229   220   170 1
  230   221   169 1
  231   222   140 1
  232   223   167 1
  233   224   166 1
  234   225   165 1
  235   226   163 1
  236   227   161 1
  237   228   139 1
  238   229   139 1
  239   230   153 1
  240   231   152 1
  241   232   150 1
  242   233   149 1
  243   234   148 1
  244   235   162 1
  245   65    153 1
  246   65    174 1
@<TRIPOS>SUBSTRUCTURE
      1 CLA               1 ****               0 ****  **** 
      2 LUT             138 ****               0 ****  **** 
