@<TRIPOS>MOLECULE
Cpptraj generated mol2 file.
  235   246     2     0     0
SMALL
USER_CHARGES


@<TRIPOS>ATOM
      1 CAA        77.6439   57.1651   35.1017 a2         1 CLA     -0.055900
      2 CAB        77.3441   61.5715   43.8792 c8         1 CLA     -0.148500
      3 CAC        70.6190   57.2764   43.5605 a2         1 CLA     -0.012600
      4 CAD        73.6713   54.5128   36.6031 ck         1 CLA      0.398800
      5 NA         76.4558   57.9795   38.5569 ns         1 CLA     -0.225500
      6 CBA        78.9078   56.8402   34.3004 a2         1 CLA     -0.135000
      7 CBB        77.2822   61.0598   45.0910 c0         1 CLA     -0.395200
      8 CBC        70.5830   55.7643   43.6295 a3         1 CLA     -0.037700
      9 CBD        75.1255   55.0481   36.3656 a1         1 CLA     -0.053900
     10 NB         76.3123   59.5165   40.9549 nm         1 CLA     -0.295700
     11 OBD        73.2301   53.5444   36.0705 o2         1 CLA     -0.494600
     12 CGA        79.2834   55.3594   34.1682 c4         1 CLA      0.827000
     13 CGD        76.1604   53.8777   36.6569 c4         1 CLA      0.655300
     14 ND         73.6331   57.1578   38.9586 nm         1 CLA     -0.291600
     15 CED        77.2789   52.5312   38.2467 a3         1 CLA      0.005400
     16 CHA        75.2832   56.2334   37.2901 cs         1 CLA     -0.123800
     17 CHB        78.2023   59.3938   39.4632 aa         1 CLA     -0.291900
     18 CHC        74.8660   59.9740   42.9083 aa         1 CLA     -0.090400
     19 CHD        71.8225   56.9744   40.5672 aa         1 CLA     -0.052000
     20 CMA        79.9126   57.4658   38.0415 a3         1 CLA     -0.230700
     21 CMB        79.4650   61.6950   41.3553 a3         1 CLA     -0.180800
     22 CMC        72.6802   59.2198   45.0809 a3         1 CLA     -0.134000
     23 CMD        70.6625   54.9205   38.4328 a3         1 CLA     -0.141100
     24 C1         80.1203   53.3936   35.3540 a2         1 CLA      0.023000
     25 C1A        76.4240   57.0892   37.4627 ac         1 CLA     -0.015100
     26 C1B        77.5522   59.9443   40.5663 cr         1 CLA      0.054700
     27 C1C        73.7725   59.1304   42.6379 cn         1 CLA     -0.005600
     28 C1D        72.3916   56.6866   39.3169 ap         1 CLA     -0.047300
     29 O1A        78.9310   54.6811   33.2092 o2         1 CLA     -0.610800
     30 O1D        76.9834   53.5164   35.8310 o2         1 CLA     -0.558200
     31 C2         80.5506   53.2542   36.7780 c8         1 CLA     -0.325100
     32 C2A        77.7636   56.9917   36.6947 a1         1 CLA      0.098600
     33 C2B        78.1801   60.8916   41.5451 cb         1 CLA      0.088500
     34 C2C        72.7567   58.7250   43.6102 cb         1 CLA      0.053700
     35 C2D        71.9329   55.6875   38.3579 cb         1 CLA      0.058900
     36 O2A        79.9078   54.8737   35.2902 o1         1 CLA     -0.437200
     37 O2D        76.1578   53.4141   37.9809 o1         1 CLA     -0.357600
     38 C3         81.6050   52.5382   37.2358 c5         1 CLA      0.031200
     39 C3A        78.6062   57.9740   37.4735 a1         1 CLA      0.166800
     40 C3B        77.2517   60.8625   42.6060 cb         1 CLA      0.035000
     41 C3C        71.8964   57.8768   42.9165 cb         1 CLA     -0.089900
     42 C3D        73.0625   55.4622   37.5117 cb         1 CLA     -0.035900
     43 C4         81.4847   51.1243   37.7358 a3         1 CLA     -0.053300
     44 C4A        77.7133   58.5300   38.5265 ac         1 CLA      0.001800
     45 C4B        76.0810   60.1136   42.1883 cn         1 CLA     -0.020900
     46 C4C        72.3968   57.7370   41.6016 cr         1 CLA     -0.044400
     47 C4D        74.0111   56.4247   37.9673 c6         1 CLA     -0.046000
     48 C5         83.0204   53.0745   37.1614 a2         1 CLA     -0.070400
     49 C6         83.1975   54.6193   37.2156 a2         1 CLA      0.043900
     50 C7         83.2952   55.1995   38.6431 a2         1 CLA     -0.150000
     51 C8         83.7652   56.7512   38.6223 a1         1 CLA      0.064200
     52 C9         85.0643   57.0868   37.7683 a3         1 CLA     -0.259300
     53 C10        84.0168   57.3401   40.0411 a2         1 CLA     -0.071900
     54 C11        82.7878   57.2545   40.9846 a2         1 CLA      0.014500
     55 C12        83.1138   57.9663   42.4022 a2         1 CLA     -0.112100
     56 C13        84.2017   57.2923   43.3176 a1         1 CLA      0.089200
     57 C14        83.6329   55.9005   43.7384 a3         1 CLA     -0.239100
     58 C15        84.6822   58.1165   44.5896 a2         1 CLA     -0.102200
     59 C16        83.7060   58.5114   45.7383 a2         1 CLA      0.023900
     60 C17        82.6984   59.6234   45.3699 a2         1 CLA     -0.105700
     61 C18        81.7763   60.2260   46.4989 a1         1 CLA      0.206800
     62 C19        82.4289   60.5923   47.8128 a3         1 CLA     -0.280100
     63 C20        81.0930   61.4585   45.8334 a3         1 CLA     -0.280100
     64 NC         73.5316   58.5040   41.4775 nx         1 CLA     -0.309200
     65 MG         74.9447   58.4371   39.8793 mg         1 CLA      0.895000
     66 HMD3       70.6510   54.2495   37.6302 dc         1 CLA      0.064300
     67 HMD2       70.6977   54.4046   39.3704 dc         1 CLA      0.064300
     68 HMD1       69.7205   55.4819   38.4968 dc         1 CLA      0.064300
     69 HMC3       72.8014   60.3184   45.0728 dc         1 CLA      0.052100
     70 HMC2       71.7301   58.9366   45.5761 dc         1 CLA      0.052100
     71 HMC1       73.4833   58.8477   45.7436 dc         1 CLA      0.052100
     72 HMB3       79.3630   62.5445   42.0466 dc         1 CLA      0.063600
     73 HMB2       80.3708   61.1199   41.6875 dc         1 CLA      0.063600
     74 HMB1       79.4355   62.0602   40.3128 dc         1 CLA      0.063600
     75 HMA3       80.5283   57.0302   37.2756 dc         1 CLA      0.058300
     76 HMA2       80.4594   58.1420   38.6655 dc         1 CLA      0.058300
     77 HMA1       79.6997   56.6818   38.6974 dc         1 CLA      0.058300
     78 HED3       77.6825   51.9781   37.4055 dc         1 CLA      0.079300
     79 HED2       78.0010   53.0360   38.8454 dc         1 CLA      0.079300
     80 HED1       76.7927   51.6678   38.7447 dc         1 CLA      0.079300
     81 HBC3       69.8053   55.4810   44.3736 dc         1 CLA      0.016300
     82 HBC2       70.3300   55.3423   42.6867 dc         1 CLA      0.016300
     83 HBC1       71.6063   55.4932   43.8086 dc         1 CLA      0.016300
     84 HBB2       77.2959   61.7641   45.9955 da         1 CLA      0.183000
     85 HBB1       77.1600   59.9530   45.2000 da         1 CLA      0.183000
     86 HBA2       78.6588   57.1602   33.2847 dc         1 CLA      0.029400
     87 HBA1       79.7436   57.3512   34.8154 dc         1 CLA      0.029400
     88 HAC2       70.4414   57.6938   44.6172 dc         1 CLA      0.029300
     89 HAC1       69.8206   57.4988   42.8424 dc         1 CLA      0.029300
     90 HAA2       76.8149   56.6220   34.6794 dc         1 CLA      0.028700
     91 HAA1       77.3063   58.2178   34.9907 dc         1 CLA      0.028700
     92 H203       80.3778   61.1101   45.0154 dc         1 CLA      0.065600
     93 H202       80.4452   61.9456   46.6287 dc         1 CLA      0.065600
     94 H201       81.8004   62.2564   45.5367 dc         1 CLA      0.065600
     95 H193       81.5911   61.0239   48.4446 dc         1 CLA      0.065600
     96 H192       82.8640   59.7862   48.3121 dc         1 CLA      0.065600
     97 H191       83.2259   61.1590   47.5577 dc         1 CLA      0.065600
     98 H172       83.2848   60.4121   44.9588 dc         1 CLA      0.027600
     99 H171       82.1214   59.1877   44.5713 dc         1 CLA      0.027600
    100 H162       83.0098   57.6966   46.0158 dc         1 CLA      0.002900
    101 H161       84.1926   58.8044   46.6804 dc         1 CLA      0.002900
    102 H152       85.4244   57.5021   45.0190 dc         1 CLA      0.029100
    103 H151       85.1168   59.1310   44.2685 dc         1 CLA      0.029100
    104 H143       83.3693   55.2212   42.9600 dc         1 CLA      0.063600
    105 H142       84.3798   55.4546   44.3808 dc         1 CLA      0.063600
    106 H141       82.6992   55.8798   44.2985 dc         1 CLA      0.063600
    107 H122       83.2898   59.0361   42.1048 dc         1 CLA      0.032500
    108 H121       82.1954   57.9502   42.9836 dc         1 CLA      0.032500
    109 H112       81.9460   57.7619   40.5168 dc         1 CLA      0.006600
    110 H111       82.4287   56.2610   41.1700 dc         1 CLA      0.006600
    111 H102       84.8024   56.7302   40.5425 dc         1 CLA      0.024100
    112 H101       84.2552   58.3954   39.9041 dc         1 CLA      0.024100
    113 HHD        70.8972   56.4433   40.8905 da         1 CLA      0.174300
    114 HHC        74.9183   60.3209   43.9358 da         1 CLA      0.136800
    115 HHB        79.2364   59.7452   39.4121 da         1 CLA      0.138300
    116 HBD        75.1720   55.3703   35.2990 dc         1 CLA      0.107700
    117 HAB        77.4654   62.6209   43.8225 da         1 CLA      0.155200
    118 H93        85.8274   56.5001   38.2687 dc         1 CLA      0.069500
    119 H92        85.0188   56.7349   36.7445 dc         1 CLA      0.069500
    120 H91        85.3390   58.1670   37.7665 dc         1 CLA      0.069500
    121 H8         82.9444   57.2599   38.0957 dc         1 CLA      0.029300
    122 H72        82.2674   55.0392   38.9630 dc         1 CLA      0.044400
    123 H71        83.9872   54.5924   39.2697 dc         1 CLA      0.044400
    124 H62        84.1189   54.7498   36.7005 dc         1 CLA      0.015600
    125 H61        82.3860   55.0738   36.6698 dc         1 CLA      0.015600
    126 H52        83.6218   52.6117   37.9841 dc         1 CLA      0.033200
    127 H51        83.4769   52.8099   36.1859 dc         1 CLA      0.033200
    128 H43        81.5820   50.4609   36.9094 dc         1 CLA      0.037000
    129 H42        82.2473   50.8843   38.4507 dc         1 CLA      0.037000
    130 H41        80.4797   50.9508   38.0495 dc         1 CLA      0.037000
    131 H3A        78.9283   58.8049   36.7751 dc         1 CLA      0.041100
    132 H2A        78.0929   55.9796   36.9041 dc         1 CLA      0.083100
    133 H2         80.0631   53.8502   37.5995 da         1 CLA      0.180900
    134 H18        81.1590   59.4022   46.6579 dc         1 CLA     -0.003900
    135 H13        85.1542   57.0723   42.8208 dc         1 CLA      0.019700
    136 H12        79.3055   52.8209   35.2040 dc         1 CLA      0.120400
    137 H11        80.9058   53.1027   34.6294 dc         1 CLA      0.120400
    138 C1         67.5612   60.8266   51.1770 Z1         2 LUT      0.509236
    139 C2         66.1444   60.8266   51.8747 Z2         2 LUT     -0.434695
    140 C3         65.4608   62.1573   51.8333 Z3         2 LUT      0.437453
    141 O3         65.1700   62.6025   53.1932 S1         2 LUT     -0.547129
    142 C4         66.1318   63.2157   51.0413 Z4         2 LUT     -0.468603
    143 C5         66.7392   62.7146   49.7968 Z5         2 LUT      0.279246
    144 C6         67.4948   61.6159   49.8249 Z6         2 LUT     -0.305473
    145 C7         67.9572   61.0106   48.6172 Z7         2 LUT      0.069402
    146 C8         68.5927   61.6877   47.5984 Z8         2 LUT     -0.191631
    147 C9         69.0368   61.2677   46.2946 Z9         2 LUT      0.196698
    148 C10        69.9221   62.1027   45.5673 Y1         2 LUT     -0.208611
    149 C11        70.4244   61.9091   44.1783 Y2         2 LUT      0.030784
    150 C12        71.6394   62.4541   43.8076 Y3         2 LUT     -0.220316
    151 C13        72.3238   62.4605   42.5562 Y4         2 LUT      0.215937
    152 C14        73.5280   63.0965   42.4620 Y5         2 LUT     -0.185793
    153 C15        74.4510   63.1922   41.4262 Y6         2 LUT     -0.057835
    154 C16        68.0107   59.3306   51.0104 Y7         2 LUT     -0.405615
    155 C17        68.5783   61.3995   52.1201 Y7         2 LUT     -0.405615
    156 C18        66.0546   63.2101   48.5503 Y9         2 LUT     -0.369639
    157 C19        68.3229   60.0850   45.7320 W1         2 LUT     -0.333362
    158 C20        71.6329   61.8180   41.3213 W2         2 LUT     -0.323439
    159 C21        86.0729   65.2089   35.6423 Z1         2 LUT      0.406104
    160 C22        86.9197   64.6929   34.4332 Z2         2 LUT     -0.404965
    161 C23        86.9631   65.6411   33.2175 Z3         2 LUT      0.391255
    162 O23        87.7801   65.1237   32.1366 S1         2 LUT     -0.528210
    163 C24        85.5535   66.1683   32.8652 W6         2 LUT     -0.258361
    164 C25        84.5404   66.1324   33.7552 Z5         2 LUT      0.133546
    165 C26        84.5920   65.3993   35.1005 W8         2 LUT     -0.147008
    166 C27        83.7503   66.0618   36.1528 Z7         2 LUT      0.023843
    167 C28        82.7441   65.5182   36.8583 Z8         2 LUT     -0.216987
    168 C29        81.9155   66.0665   37.9053 Z9         2 LUT      0.206524
    169 C30        80.8542   65.2500   38.2738 Y1         2 LUT     -0.215556
    170 C31        79.9756   65.2977   39.4313 Y2         2 LUT      0.025142
    171 C32        78.8569   64.6056   39.6124 Y3         2 LUT     -0.212209
    172 C33        77.9332   64.7472   40.7793 Y4         2 LUT      0.240937
    173 C34        76.6482   64.1550   40.7015 Y5         2 LUT     -0.218862
    174 C35        75.6253   63.9229   41.6174 Y6         2 LUT     -0.023547
    175 C36        86.7266   66.4937   36.2422 Y7         2 LUT     -0.393485
    176 C37        86.0063   64.0875   36.7688 Y7         2 LUT     -0.393485
    177 C38        83.2079   66.6706   33.2733 Y9         2 LUT     -0.387526
    178 C39        82.2503   67.4464   38.5338 W1         2 LUT     -0.322618
    179 C40        78.3088   65.5076   42.0163 W2         2 LUT     -0.358472
    180 H403       78.2314   66.5338   41.8303 R7         2 LUT      0.097720
    181 H402       77.7848   65.3320   42.9657 R7         2 LUT      0.097720
    182 H401       79.3004   65.2353   42.4178 R7         2 LUT      0.097720
    183 H393       82.1921   68.2949   37.8338 R4         2 LUT      0.082505
    184 H392       81.6454   67.7582   39.4073 R4         2 LUT      0.082505
    185 H391       83.3172   67.3879   38.7869 R4         2 LUT      0.082505
    186 H383       82.5238   66.3459   34.0037 R1         2 LUT      0.104030
    187 H382       83.2718   67.8252   33.0795 R1         2 LUT      0.104030
    188 H381       82.8385   66.2795   32.2754 R1         2 LUT      0.104030
    189 H373       85.3880   64.4951   37.4950 T4         2 LUT      0.089537
    190 H372       85.6023   63.1291   36.4735 T4         2 LUT      0.089537
    191 H371       86.9563   63.9666   37.2316 T4         2 LUT      0.089537
    192 H363       87.7610   66.3698   36.4834 T4         2 LUT      0.089537
    193 H362       86.8277   67.2922   35.4468 T4         2 LUT      0.089537
    194 H361       86.2529   66.7729   37.1419 T4         2 LUT      0.089537
    195 H222       87.9798   64.6359   34.7639 U2         2 LUT      0.127376
    196 H221       86.6702   63.6762   34.1116 U2         2 LUT      0.127376
    197 H203       70.6317   62.1511   41.1512 R7         2 LUT      0.087068
    198 H202       72.2293   61.9423   40.4304 R7         2 LUT      0.087068
    199 H201       71.6169   60.7309   41.4460 R7         2 LUT      0.087068
    200 H193       68.0346   59.3698   46.4679 R4         2 LUT      0.089716
    201 H192       67.3449   60.4519   45.3172 R4         2 LUT      0.089716
    202 H191       68.9419   59.4483   45.0668 R4         2 LUT      0.089716
    203 H183       65.0500   63.3543   48.8481 R1         2 LUT      0.094572
    204 H182       66.4621   64.1148   48.1879 R1         2 LUT      0.094572
    205 H181       65.9988   62.4961   47.7237 R1         2 LUT      0.094572
    206 H173       69.5022   61.5738   51.6146 T4         2 LUT      0.093752
    207 H172       68.3380   62.4759   52.3874 T4         2 LUT      0.093752
    208 H171       68.7879   60.9077   53.0537 T4         2 LUT      0.093752
    209 H163       68.1053   58.7903   51.9799 T4         2 LUT      0.093752
    210 H162       67.1727   58.8343   50.4930 T4         2 LUT      0.093752
    211 H161       68.9075   59.2550   50.4226 T4         2 LUT      0.093752
    212 HO3        64.2729   62.3227   53.5439 Q1         2 LUT      0.300121
    213 H8         68.8171   62.6856   47.8585 U7         2 LUT      0.080784
    214 H7         67.6633   59.9886   48.5189 U6         2 LUT      0.042190
    215 H42        65.4759   64.0132   50.7495 U5         2 LUT      0.145166
    216 H41        66.8961   63.8539   51.6232 U5         2 LUT      0.145166
    217 H35        75.8028   64.3650   42.5935 T3         2 LUT      0.077919
    218 H34        76.4874   63.7044   39.7443 T2         2 LUT      0.073626
    219 H32        78.6020   64.0653   38.6922 T1         2 LUT      0.092510
    220 H31        80.1501   66.0079   40.2907 U9         2 LUT      0.070048
    221 H30        80.8395   64.2849   37.6897 U8         2 LUT      0.085442
    222 H3         64.4553   62.1557   51.3039 U3         2 LUT     -0.031596
    223 H28        82.5546   64.4362   36.4918 U7         2 LUT      0.084728
    224 H27        84.0045   67.0883   36.2450 U6         2 LUT      0.087291
    225 H26        84.2367   64.4179   34.8076 Q6         2 LUT      0.075325
    226 H24        85.3754   66.5716   31.8910 Q5         2 LUT      0.094482
    227 H23        87.4738   66.5535   33.5696 U3         2 LUT     -0.024869
    228 H22        65.4496   60.2662   51.2501 U2         2 LUT      0.127376
    229 H21        66.2412   60.5828   52.8909 U2         2 LUT      0.127376
    230 H15        74.2177   62.8550   40.4221 T3         2 LUT      0.093200
    231 H14        73.7951   63.6352   43.3462 T2         2 LUT      0.068865
    232 H12        72.0881   63.0851   44.5973 T1         2 LUT      0.095507
    233 H11        69.7162   61.2776   43.6099 U9         2 LUT      0.068930
    234 H10        70.3010   62.8960   46.1759 U8         2 LUT      0.083911
    235 H1         87.4092   64.3047   31.7511 Q1         2 LUT      0.297311
@<TRIPOS>BOND
    1     6     1 1
    2     7     2 1
    3     8     3 1
    4     9     4 1
    5    11     4 1
    6    12     6 1
    7    13     9 1
    8    16     9 1
    9    25     5 1
   10    25    16 1
   11    26    10 1
   12    26    17 1
   13    27    18 1
   14    28    14 1
   15    28    19 1
   16    29    12 1
   17    30    13 1
   18    31    24 1
   19    32     1 1
   20    32    25 1
   21    33    21 1
   22    33    26 1
   23    34    22 1
   24    34    27 1
   25    35    23 1
   26    35    28 1
   27    36    12 1
   28    36    24 1
   29    37    13 1
   30    37    15 1
   31    38    31 1
   32    39    20 1
   33    39    32 1
   34    40     2 1
   35    40    33 1
   36    41     3 1
   37    41    34 1
   38    42     4 1
   39    42    35 1
   40    43    38 1
   41    44     5 1
   42    44    17 1
   43    44    39 1
   44    45    10 1
   45    45    18 1
   46    45    40 1
   47    46    19 1
   48    46    41 1
   49    47    14 1
   50    47    16 1
   51    47    42 1
   52    48    38 1
   53    49    48 1
   54    50    49 1
   55    51    50 1
   56    52    51 1
   57    53    51 1
   58    54    53 1
   59    55    54 1
   60    56    55 1
   61    57    56 1
   62    58    56 1
   63    59    58 1
   64    60    59 1
   65    61    60 1
   66    62    61 1
   67    63    61 1
   68    64    27 1
   69    64    46 1
   70    65     5 1
   71    65    10 1
   72    65    64 1
   73    65    14 1
   74    66    23 1
   75    67    23 1
   76    68    23 1
   77    69    22 1
   78    70    22 1
   79    71    22 1
   80    72    21 1
   81    73    21 1
   82    74    21 1
   83    75    20 1
   84    76    20 1
   85    77    20 1
   86    78    15 1
   87    79    15 1
   88    80    15 1
   89    81     8 1
   90    82     8 1
   91    83     8 1
   92    84     7 1
   93    85     7 1
   94    86     6 1
   95    87     6 1
   96    88     3 1
   97    89     3 1
   98    90     1 1
   99    91     1 1
  100    92    63 1
  101    93    63 1
  102    94    63 1
  103    95    62 1
  104    96    62 1
  105    97    62 1
  106    98    60 1
  107    99    60 1
  108   100    59 1
  109   101    59 1
  110   102    58 1
  111   103    58 1
  112   104    57 1
  113   105    57 1
  114   106    57 1
  115   107    55 1
  116   108    55 1
  117   109    54 1
  118   110    54 1
  119   111    53 1
  120   112    53 1
  121   113    19 1
  122   114    18 1
  123   115    17 1
  124   116     9 1
  125   117     2 1
  126   118    52 1
  127   119    52 1
  128   120    52 1
  129   121    51 1
  130   122    50 1
  131   123    50 1
  132   124    49 1
  133   125    49 1
  134   126    48 1
  135   127    48 1
  136   128    43 1
  137   129    43 1
  138   130    43 1
  139   131    39 1
  140   132    32 1
  141   133    31 1
  142   134    61 1
  143   135    56 1
  144   136    24 1
  145   137    24 1
  146   139   138 1
  147   140   139 1
  148   141   140 1
  149   142   140 1
  150   143   142 1
  151   144   138 1
  152   144   143 1
  153   145   144 1
  154   146   145 1
  155   147   146 1
  156   148   147 1
  157   149   148 1
  158   150   149 1
  159   151   150 1
  160   152   151 1
  161   153   152 1
  162   154   138 1
  163   155   138 1
  164   156   143 1
  165   157   147 1
  166   158   151 1
  167   160   159 1
  168   161   160 1
  169   162   161 1
  170   163   161 1
  171   164   163 1
  172   165   159 1
  173   165   164 1
  174   166   165 1
  175   167   166 1
  176   168   167 1
  177   169   168 1
  178   170   169 1
  179   171   170 1
  180   172   171 1
  181   173   172 1
  182   174   153 1
  183   174   173 1
  184   175   159 1
  185   176   159 1
  186   177   164 1
  187   178   168 1
  188   179   172 1
  189   180   179 1
  190   181   179 1
  191   182   179 1
  192   183   178 1
  193   184   178 1
  194   185   178 1
  195   186   177 1
  196   187   177 1
  197   188   177 1
  198   189   176 1
  199   190   176 1
  200   191   176 1
  201   192   175 1
  202   193   175 1
  203   194   175 1
  204   195   160 1
  205   196   160 1
  206   197   158 1
  207   198   158 1
  208   199   158 1
  209   200   157 1
  210   201   157 1
  211   202   157 1
  212   203   156 1
  213   204   156 1
  214   205   156 1
  215   206   155 1
  216   207   155 1
  217   208   155 1
  218   209   154 1
  219   210   154 1
  220   211   154 1
  221   212   141 1
  222   213   146 1
  223   214   145 1
  224   215   142 1
  225   216   142 1
  226   217   174 1
  227   218   173 1
  228   219   171 1
  229   220   170 1
  230   221   169 1
  231   222   140 1
  232   223   167 1
  233   224   166 1
  234   225   165 1
  235   226   163 1
  236   227   161 1
  237   228   139 1
  238   229   139 1
  239   230   153 1
  240   231   152 1
  241   232   150 1
  242   233   149 1
  243   234   148 1
  244   235   162 1
  245   65    153 1
  246   65    174 1
@<TRIPOS>SUBSTRUCTURE
      1 CLA               1 ****               0 ****  **** 
      2 LUT             138 ****               0 ****  **** 
