@<TRIPOS>MOLECULE
Cpptraj generated mol2 file.
  235   246     2     0     0
SMALL
USER_CHARGES


@<TRIPOS>ATOM
      1 CAA        79.3502   57.6994   34.5869 a2         1 CLA     -0.055900
      2 CAB        79.3777   61.5987   43.4953 c8         1 CLA     -0.148500
      3 CAC        72.7574   57.0680   43.1808 a2         1 CLA     -0.012600
      4 CAD        75.5059   54.7108   35.8220 ck         1 CLA      0.398800
      5 NA         78.4298   57.9614   37.9917 ns         1 CLA     -0.225500
      6 CBA        80.5785   57.5955   33.6201 a2         1 CLA     -0.135000
      7 CBB        80.4945   61.6050   44.2375 c0         1 CLA     -0.395200
      8 CBC        72.8341   55.5652   43.4325 a3         1 CLA     -0.037700
      9 CBD        76.8284   55.4595   35.5002 a1         1 CLA     -0.053900
     10 NB         78.3341   59.5607   40.6082 nm         1 CLA     -0.295700
     11 OBD        74.9952   53.8046   35.2214 o2         1 CLA     -0.494600
     12 CGA        80.9192   56.2032   33.0472 c4         1 CLA      0.827000
     13 CGD        77.9224   54.4971   35.0784 c4         1 CLA      0.655300
     14 ND         75.8114   56.8928   38.6706 nm         1 CLA     -0.291600
     15 CED        79.0977   52.4883   35.7190 a3         1 CLA      0.005400
     16 CHA        77.1385   56.4400   36.6000 cs         1 CLA     -0.123800
     17 CHB        80.2472   59.3377   39.0119 aa         1 CLA     -0.291900
     18 CHC        76.9739   59.8140   42.6444 aa         1 CLA     -0.090400
     19 CHD        74.0664   56.5980   40.3495 aa         1 CLA     -0.052000
     20 CMA        81.9749   57.3946   37.2726 a3         1 CLA     -0.230700
     21 CMB        81.4874   61.4543   40.9813 a3         1 CLA     -0.180800
     22 CMC        74.7636   59.1602   44.7921 a3         1 CLA     -0.134000
     23 CMD        72.9323   54.5712   38.1476 a3         1 CLA     -0.141100
     24 C1         82.2624   54.2489   33.5790 a2         1 CLA      0.023000
     25 C1A        78.3473   57.2349   36.8458 ac         1 CLA     -0.015100
     26 C1B        79.6145   59.8883   40.1804 cr         1 CLA      0.054700
     27 C1C        75.8232   58.9755   42.4178 cn         1 CLA     -0.005600
     28 C1D        74.6134   56.3079   39.0777 ap         1 CLA     -0.047300
     29 O1A        80.7160   55.7867   31.9027 o2         1 CLA     -0.610800
     30 O1D        78.5174   54.4902   33.9987 o2         1 CLA     -0.558200
     31 C2         82.9650   53.7640   34.7480 c8         1 CLA     -0.325100
     32 C2A        79.5746   57.1987   36.0148 a1         1 CLA      0.098600
     33 C2B        80.2097   60.8024   41.1894 cb         1 CLA      0.088500
     34 C2C        74.8154   58.6015   43.3628 cb         1 CLA      0.053700
     35 C2D        74.1812   55.3263   38.1020 cb         1 CLA      0.058900
     36 O2A        81.5408   55.4700   33.9929 o1         1 CLA     -0.437200
     37 O2D        78.0855   53.4825   35.9930 o1         1 CLA     -0.357600
     38 C3         84.2142   53.2672   34.7089 c5         1 CLA      0.031200
     39 C3A        80.6238   58.1132   36.8221 a1         1 CLA      0.166800
     40 C3B        79.2323   60.9377   42.2438 cb         1 CLA      0.035000
     41 C3C        73.9795   57.6918   42.6692 cb         1 CLA     -0.089900
     42 C3D        75.1337   55.3365   37.0967 cb         1 CLA     -0.035900
     43 C4         84.5384   51.7717   34.7883 a3         1 CLA     -0.053300
     44 C4A        79.6856   58.5083   38.0250 ac         1 CLA      0.001800
     45 C4B        78.0999   60.1913   41.8075 cn         1 CLA     -0.020900
     46 C4C        74.5189   57.5260   41.3283 cr         1 CLA     -0.044400
     47 C4D        76.1298   56.2530   37.4943 c6         1 CLA     -0.046000
     48 C5         85.3621   54.1546   35.0916 a2         1 CLA     -0.070400
     49 C6         85.2319   54.6291   36.4952 a2         1 CLA      0.043900
     50 C7         86.5535   55.1841   37.0625 a2         1 CLA     -0.150000
     51 C8         86.5190   55.5469   38.5840 a1         1 CLA      0.064200
     52 C9         85.7530   56.8843   38.8140 a3         1 CLA     -0.259300
     53 C10        88.0365   55.6924   39.0915 a2         1 CLA     -0.071900
     54 C11        88.1520   56.0010   40.5525 a2         1 CLA      0.014500
     55 C12        87.7681   54.8299   41.4279 a2         1 CLA     -0.112100
     56 C13        87.7773   55.0134   42.9486 a1         1 CLA      0.089200
     57 C14        87.3491   53.7512   43.7179 a3         1 CLA     -0.239100
     58 C15        86.9147   56.2606   43.4466 a2         1 CLA     -0.102200
     59 C16        85.9629   56.1702   44.7117 a2         1 CLA      0.023900
     60 C17        85.6743   57.5929   45.2802 a2         1 CLA     -0.105700
     61 C18        84.1933   57.8817   45.6275 a1         1 CLA      0.206800
     62 C19        83.6377   57.0102   46.8283 a3         1 CLA     -0.280100
     63 C20        83.8924   59.4012   45.8093 a3         1 CLA     -0.280100
     64 NC         75.6400   58.3564   41.1826 nx         1 CLA     -0.309200
     65 MG         76.9894   58.3228   39.5177 mg         1 CLA      0.895000
     66 HMD3       72.1330   55.1314   37.7836 dc         1 CLA      0.064300
     67 HMD2       73.1655   53.6873   37.5819 dc         1 CLA      0.064300
     68 HMD1       72.8506   54.3384   39.2221 dc         1 CLA      0.064300
     69 HMC3       73.7820   59.0706   45.2542 dc         1 CLA      0.052100
     70 HMC2       75.5914   58.6725   45.3584 dc         1 CLA      0.052100
     71 HMC1       74.9631   60.1978   44.6384 dc         1 CLA      0.052100
     72 HMB3       81.5977   62.3042   41.6581 dc         1 CLA      0.063600
     73 HMB2       82.3255   60.7873   41.0054 dc         1 CLA      0.063600
     74 HMB1       81.4091   61.7829   39.9466 dc         1 CLA      0.063600
     75 HMA3       82.3720   57.9399   38.0886 dc         1 CLA      0.058300
     76 HMA2       81.7990   56.3933   37.6785 dc         1 CLA      0.058300
     77 HMA1       82.6788   57.3958   36.4378 dc         1 CLA      0.058300
     78 HED3       79.7969   52.7053   34.8959 dc         1 CLA      0.079300
     79 HED2       79.7366   52.3568   36.6160 dc         1 CLA      0.079300
     80 HED1       78.6261   51.5706   35.4248 dc         1 CLA      0.079300
     81 HBC3       73.5242   55.4319   44.2407 dc         1 CLA      0.016300
     82 HBC2       71.8453   55.2055   43.7691 dc         1 CLA      0.016300
     83 HBC1       73.2148   55.0481   42.5476 dc         1 CLA      0.016300
     84 HBB2       80.5106   61.9939   45.2547 da         1 CLA      0.183000
     85 HBB1       81.3932   61.0662   43.8270 da         1 CLA      0.183000
     86 HBA2       80.2280   58.1594   32.7407 dc         1 CLA      0.029400
     87 HBA1       81.4579   58.1363   33.9273 dc         1 CLA      0.029400
     88 HAC2       72.4107   57.6011   44.0796 dc         1 CLA      0.029300
     89 HAC1       72.0051   57.2186   42.3659 dc         1 CLA      0.029300
     90 HAA2       78.4895   57.2256   34.1994 dc         1 CLA      0.028700
     91 HAA1       78.8939   58.7154   34.6388 dc         1 CLA      0.028700
     92 H203       84.4805   59.7554   46.6153 dc         1 CLA      0.065600
     93 H202       84.1509   59.8796   44.8293 dc         1 CLA      0.065600
     94 H201       82.8509   59.5625   45.9463 dc         1 CLA      0.065600
     95 H193       84.1951   57.0671   47.6895 dc         1 CLA      0.065600
     96 H192       82.6651   57.4873   47.0757 dc         1 CLA      0.065600
     97 H191       83.4607   55.9793   46.7185 dc         1 CLA      0.065600
     98 H172       86.3540   57.9284   46.0894 dc         1 CLA      0.027600
     99 H171       85.8122   58.2886   44.4770 dc         1 CLA      0.027600
    100 H162       85.0322   55.7257   44.3406 dc         1 CLA      0.002900
    101 H161       86.4701   55.6101   45.4312 dc         1 CLA      0.002900
    102 H152       87.6858   56.9806   43.8104 dc         1 CLA      0.029100
    103 H151       86.2773   56.7169   42.6657 dc         1 CLA      0.029100
    104 H143       86.2944   53.5007   43.6363 dc         1 CLA      0.063600
    105 H142       88.0107   52.8621   43.5362 dc         1 CLA      0.063600
    106 H141       87.4847   53.9526   44.7722 dc         1 CLA      0.063600
    107 H122       86.7272   54.6070   41.1629 dc         1 CLA      0.032500
    108 H121       88.3515   53.9108   41.1098 dc         1 CLA      0.032500
    109 H112       89.1991   56.2917   40.8272 dc         1 CLA      0.006600
    110 H111       87.6624   56.9107   40.7850 dc         1 CLA      0.006600
    111 H102       88.6217   54.8185   38.7454 dc         1 CLA      0.024100
    112 H101       88.5271   56.5189   38.5333 dc         1 CLA      0.024100
    113 HHD        73.2027   55.9906   40.5858 da         1 CLA      0.174300
    114 HHC        76.8957   60.1394   43.6687 da         1 CLA      0.136800
    115 HHB        81.3213   59.6628   38.8080 da         1 CLA      0.138300
    116 HBD        76.6093   56.1327   34.7113 dc         1 CLA      0.107700
    117 HAB        78.4935   62.0461   43.9203 da         1 CLA      0.155200
    118 H93        86.2466   57.6120   38.1946 dc         1 CLA      0.069500
    119 H92        84.7065   56.8429   38.5747 dc         1 CLA      0.069500
    120 H91        85.8985   57.1093   39.8582 dc         1 CLA      0.069500
    121 H8         85.9933   54.7964   39.1385 dc         1 CLA      0.029300
    122 H72        87.2784   54.3844   36.9168 dc         1 CLA      0.044400
    123 H71        86.8404   56.0923   36.5480 dc         1 CLA      0.044400
    124 H62        84.5070   55.3934   36.5492 dc         1 CLA      0.015600
    125 H61        84.9017   53.7621   37.0831 dc         1 CLA      0.015600
    126 H52        86.2683   53.5831   35.0078 dc         1 CLA      0.033200
    127 H51        85.3899   55.0160   34.3962 dc         1 CLA      0.033200
    128 H43        83.5833   51.3440   35.0926 dc         1 CLA      0.037000
    129 H42        84.7239   51.3646   33.7822 dc         1 CLA      0.037000
    130 H41        85.3699   51.5147   35.4630 dc         1 CLA      0.037000
    131 H3A        80.8531   59.0683   36.2967 dc         1 CLA      0.041100
    132 H2A        79.9333   56.1524   35.9437 dc         1 CLA      0.083100
    133 H2         82.5946   54.0303   35.7539 da         1 CLA      0.180900
    134 H18        83.5975   57.7243   44.7718 dc         1 CLA     -0.003900
    135 H13        88.7868   55.2039   43.3102 dc         1 CLA      0.019700
    136 H12        81.5934   53.4628   33.2518 dc         1 CLA      0.120400
    137 H11        82.8760   54.4953   32.7456 dc         1 CLA      0.120400
    138 C1         70.4822   61.0479   50.5878 Z1         2 LUT      0.509236
    139 C2         69.1009   60.7432   51.1606 Z2         2 LUT     -0.434695
    140 C3         68.2689   61.9316   51.4692 Z3         2 LUT      0.437453
    141 O3         68.4390   62.1187   52.8973 S1         2 LUT     -0.547129
    142 C4         68.5211   63.0925   50.6169 Z4         2 LUT     -0.468603
    143 C5         69.2219   62.8953   49.3428 Z5         2 LUT      0.279246
    144 C6         70.1556   61.8889   49.2987 Z6         2 LUT     -0.305473
    145 C7         70.6360   61.4264   48.0345 Z7         2 LUT      0.069402
    146 C8         71.2644   62.1896   47.1456 Z8         2 LUT     -0.191631
    147 C9         71.7675   61.8860   45.8225 Z9         2 LUT      0.196698
    148 C10        72.6469   62.8112   45.2920 Y1         2 LUT     -0.208611
    149 C11        73.3409   62.7044   44.0666 Y2         2 LUT      0.030784
    150 C12        74.5139   63.3247   43.6960 Y3         2 LUT     -0.220316
    151 C13        75.3382   63.2244   42.4539 Y4         2 LUT      0.215937
    152 C14        76.5369   63.9327   42.5020 Y5         2 LUT     -0.185793
    153 C15        77.5641   64.1104   41.4843 Y6         2 LUT     -0.057835
    154 C16        71.2794   59.7352   50.4221 Y7         2 LUT     -0.405615
    155 C17        71.3107   61.8342   51.6345 Y7         2 LUT     -0.405615
    156 C18        68.6888   63.5987   48.1449 Y9         2 LUT     -0.369639
    157 C19        71.4109   60.5273   45.2687 W1         2 LUT     -0.333362
    158 C20        74.9128   62.4106   41.2167 W2         2 LUT     -0.323439
    159 C21        89.0415   64.4707   34.9750 Z1         2 LUT      0.406104
    160 C22        89.5618   63.9173   33.5571 Z2         2 LUT     -0.404965
    161 C23        89.3484   64.8528   32.3845 Z3         2 LUT      0.391255
    162 O23        89.9088   64.2572   31.2578 S1         2 LUT     -0.528210
    163 C24        88.0448   65.4999   32.2919 W6         2 LUT     -0.258361
    164 C25        87.2439   65.6005   33.3428 Z5         2 LUT      0.133546
    165 C26        87.5627   65.0232   34.7694 W8         2 LUT     -0.147008
    166 C27        86.9653   65.8094   35.9486 Z7         2 LUT      0.023843
    167 C28        85.8445   65.4839   36.5805 Z8         2 LUT     -0.216987
    168 C29        85.1658   66.0393   37.7607 Z9         2 LUT      0.206524
    169 C30        83.9982   65.4050   38.0753 Y1         2 LUT     -0.215556
    170 C31        83.1459   65.5811   39.2482 Y2         2 LUT      0.025142
    171 C32        81.9635   64.9396   39.4766 Y3         2 LUT     -0.212209
    172 C33        81.0864   65.1081   40.5911 Y4         2 LUT      0.240937
    173 C34        79.8768   64.4386   40.6602 Y5         2 LUT     -0.218862
    174 C35        78.8051   64.6192   41.6355 Y6         2 LUT     -0.023547
    175 C36        89.9961   65.6244   35.4618 Y7         2 LUT     -0.393485
    176 C37        89.2553   63.3365   36.0512 Y7         2 LUT     -0.393485
    177 C38        85.9317   66.2835   33.1181 Y9         2 LUT     -0.387526
    178 C39        85.8100   67.1406   38.5863 W1         2 LUT     -0.322618
    179 C40        81.5334   65.8930   41.8028 W2         2 LUT     -0.358472
    180 H403       81.1652   65.3358   42.7051 R7         2 LUT      0.097720
    181 H402       82.6279   66.0743   41.8739 R7         2 LUT      0.097720
    182 H401       81.2742   66.9429   41.8366 R7         2 LUT      0.097720
    183 H393       86.5564   67.7107   37.9450 R4         2 LUT      0.082505
    184 H392       85.0598   67.8391   38.9273 R4         2 LUT      0.082505
    185 H391       86.3040   66.7451   39.4379 R4         2 LUT      0.082505
    186 H383       85.6705   66.1281   32.0822 R1         2 LUT      0.104030
    187 H382       85.0978   65.8578   33.7553 R1         2 LUT      0.104030
    188 H381       86.0526   67.3642   33.2977 R1         2 LUT      0.104030
    189 H373       90.2190   62.7808   35.9858 T4         2 LUT      0.089537
    190 H372       89.1074   63.7333   37.0823 T4         2 LUT      0.089537
    191 H371       88.4465   62.6013   35.8690 T4         2 LUT      0.089537
    192 H363       90.0728   66.4136   34.6836 T4         2 LUT      0.089537
    193 H362       89.7234   66.1939   36.2938 T4         2 LUT      0.089537
    194 H361       90.9750   65.2818   35.6622 T4         2 LUT      0.089537
    195 H222       90.5846   63.6721   33.6712 U2         2 LUT      0.127376
    196 H221       89.0265   63.0745   33.2712 U2         2 LUT      0.127376
    197 H203       74.3180   61.5009   41.3190 R7         2 LUT      0.087068
    198 H202       74.2841   62.9179   40.5149 R7         2 LUT      0.087068
    199 H201       75.6872   62.0112   40.6517 R7         2 LUT      0.087068
    200 H193       70.3938   60.5049   44.8050 R4         2 LUT      0.089716
    201 H192       72.0495   60.3415   44.4171 R4         2 LUT      0.089716
    202 H191       71.5635   59.7835   46.0240 R4         2 LUT      0.089716
    203 H183       67.7459   64.1540   48.4015 R1         2 LUT      0.094572
    204 H182       69.3378   64.3254   47.7578 R1         2 LUT      0.094572
    205 H181       68.3564   62.9538   47.2812 R1         2 LUT      0.094572
    206 H173       71.0386   62.9275   51.6467 T4         2 LUT      0.093752
    207 H172       70.9729   61.5595   52.6471 T4         2 LUT      0.093752
    208 H171       72.3855   61.8161   51.3517 T4         2 LUT      0.093752
    209 H163       72.2895   59.9467   50.0037 T4         2 LUT      0.093752
    210 H162       71.3537   59.1800   51.3724 T4         2 LUT      0.093752
    211 H161       70.7293   59.0983   49.7894 T4         2 LUT      0.093752
    212 HO3        67.6307   62.4418   53.2683 Q1         2 LUT      0.300121
    213 H8         71.5004   63.1839   47.5264 U7         2 LUT      0.080784
    214 H7         70.5612   60.3287   47.8926 U6         2 LUT      0.042190
    215 H42        67.4387   63.4328   50.4553 U5         2 LUT      0.145166
    216 H41        69.0547   64.0081   51.0530 U5         2 LUT      0.145166
    217 H35        79.0435   64.9518   42.6703 T3         2 LUT      0.077919
    218 H34        79.5261   63.7417   39.8029 T2         2 LUT      0.073626
    219 H32        81.5726   64.2879   38.7320 T1         2 LUT      0.092510
    220 H31        83.4854   66.3395   39.9698 U9         2 LUT      0.070048
    221 H30        83.5350   64.6283   37.4298 U8         2 LUT      0.085442
    222 H3         67.2326   61.6365   51.1355 U3         2 LUT     -0.031596
    223 H28        85.2002   64.6510   36.1394 U7         2 LUT      0.084728
    224 H27        87.4623   66.6965   36.2184 U6         2 LUT      0.087291
    225 H26        87.0053   64.0300   34.7900 Q6         2 LUT      0.075325
    226 H24        87.7622   65.8162   31.2644 Q5         2 LUT      0.094482
    227 H23        90.0685   65.6480   32.6094 U3         2 LUT     -0.024869
    228 H22        68.5540   60.1678   50.4114 U2         2 LUT      0.127376
    229 H21        69.1770   60.2291   52.1528 U2         2 LUT      0.127376
    230 H15        77.3202   63.6492   40.4989 T3         2 LUT      0.093200
    231 H14        76.6930   64.7024   43.2571 T2         2 LUT      0.068865
    232 H12        74.9899   63.9309   44.4790 T1         2 LUT      0.095507
    233 H11        72.9653   61.9427   43.3780 U9         2 LUT      0.068930
    234 H10        72.9668   63.6271   45.9080 U8         2 LUT      0.083911
    235 H1         89.2748   63.7664   30.6741 Q1         2 LUT      0.297311
@<TRIPOS>BOND
    1     6     1 1
    2     7     2 1
    3     8     3 1
    4     9     4 1
    5    11     4 1
    6    12     6 1
    7    13     9 1
    8    16     9 1
    9    25     5 1
   10    25    16 1
   11    26    10 1
   12    26    17 1
   13    27    18 1
   14    28    14 1
   15    28    19 1
   16    29    12 1
   17    30    13 1
   18    31    24 1
   19    32     1 1
   20    32    25 1
   21    33    21 1
   22    33    26 1
   23    34    22 1
   24    34    27 1
   25    35    23 1
   26    35    28 1
   27    36    12 1
   28    36    24 1
   29    37    13 1
   30    37    15 1
   31    38    31 1
   32    39    20 1
   33    39    32 1
   34    40     2 1
   35    40    33 1
   36    41     3 1
   37    41    34 1
   38    42     4 1
   39    42    35 1
   40    43    38 1
   41    44     5 1
   42    44    17 1
   43    44    39 1
   44    45    10 1
   45    45    18 1
   46    45    40 1
   47    46    19 1
   48    46    41 1
   49    47    14 1
   50    47    16 1
   51    47    42 1
   52    48    38 1
   53    49    48 1
   54    50    49 1
   55    51    50 1
   56    52    51 1
   57    53    51 1
   58    54    53 1
   59    55    54 1
   60    56    55 1
   61    57    56 1
   62    58    56 1
   63    59    58 1
   64    60    59 1
   65    61    60 1
   66    62    61 1
   67    63    61 1
   68    64    27 1
   69    64    46 1
   70    65     5 1
   71    65    10 1
   72    65    64 1
   73    65    14 1
   74    66    23 1
   75    67    23 1
   76    68    23 1
   77    69    22 1
   78    70    22 1
   79    71    22 1
   80    72    21 1
   81    73    21 1
   82    74    21 1
   83    75    20 1
   84    76    20 1
   85    77    20 1
   86    78    15 1
   87    79    15 1
   88    80    15 1
   89    81     8 1
   90    82     8 1
   91    83     8 1
   92    84     7 1
   93    85     7 1
   94    86     6 1
   95    87     6 1
   96    88     3 1
   97    89     3 1
   98    90     1 1
   99    91     1 1
  100    92    63 1
  101    93    63 1
  102    94    63 1
  103    95    62 1
  104    96    62 1
  105    97    62 1
  106    98    60 1
  107    99    60 1
  108   100    59 1
  109   101    59 1
  110   102    58 1
  111   103    58 1
  112   104    57 1
  113   105    57 1
  114   106    57 1
  115   107    55 1
  116   108    55 1
  117   109    54 1
  118   110    54 1
  119   111    53 1
  120   112    53 1
  121   113    19 1
  122   114    18 1
  123   115    17 1
  124   116     9 1
  125   117     2 1
  126   118    52 1
  127   119    52 1
  128   120    52 1
  129   121    51 1
  130   122    50 1
  131   123    50 1
  132   124    49 1
  133   125    49 1
  134   126    48 1
  135   127    48 1
  136   128    43 1
  137   129    43 1
  138   130    43 1
  139   131    39 1
  140   132    32 1
  141   133    31 1
  142   134    61 1
  143   135    56 1
  144   136    24 1
  145   137    24 1
  146   139   138 1
  147   140   139 1
  148   141   140 1
  149   142   140 1
  150   143   142 1
  151   144   138 1
  152   144   143 1
  153   145   144 1
  154   146   145 1
  155   147   146 1
  156   148   147 1
  157   149   148 1
  158   150   149 1
  159   151   150 1
  160   152   151 1
  161   153   152 1
  162   154   138 1
  163   155   138 1
  164   156   143 1
  165   157   147 1
  166   158   151 1
  167   160   159 1
  168   161   160 1
  169   162   161 1
  170   163   161 1
  171   164   163 1
  172   165   159 1
  173   165   164 1
  174   166   165 1
  175   167   166 1
  176   168   167 1
  177   169   168 1
  178   170   169 1
  179   171   170 1
  180   172   171 1
  181   173   172 1
  182   174   153 1
  183   174   173 1
  184   175   159 1
  185   176   159 1
  186   177   164 1
  187   178   168 1
  188   179   172 1
  189   180   179 1
  190   181   179 1
  191   182   179 1
  192   183   178 1
  193   184   178 1
  194   185   178 1
  195   186   177 1
  196   187   177 1
  197   188   177 1
  198   189   176 1
  199   190   176 1
  200   191   176 1
  201   192   175 1
  202   193   175 1
  203   194   175 1
  204   195   160 1
  205   196   160 1
  206   197   158 1
  207   198   158 1
  208   199   158 1
  209   200   157 1
  210   201   157 1
  211   202   157 1
  212   203   156 1
  213   204   156 1
  214   205   156 1
  215   206   155 1
  216   207   155 1
  217   208   155 1
  218   209   154 1
  219   210   154 1
  220   211   154 1
  221   212   141 1
  222   213   146 1
  223   214   145 1
  224   215   142 1
  225   216   142 1
  226   217   174 1
  227   218   173 1
  228   219   171 1
  229   220   170 1
  230   221   169 1
  231   222   140 1
  232   223   167 1
  233   224   166 1
  234   225   165 1
  235   226   163 1
  236   227   161 1
  237   228   139 1
  238   229   139 1
  239   230   153 1
  240   231   152 1
  241   232   150 1
  242   233   149 1
  243   234   148 1
  244   235   162 1
  245   65    153 1
  246   65    174 1
@<TRIPOS>SUBSTRUCTURE
      1 CLA               1 ****               0 ****  **** 
      2 LUT             138 ****               0 ****  **** 
