@<TRIPOS>MOLECULE
Cpptraj generated mol2 file.
  235   246     2     0     0
SMALL
USER_CHARGES


@<TRIPOS>ATOM
      1 CAA        79.7799   58.8356   34.5037 a2         1 CLA     -0.055900
      2 CAB        79.6130   62.6959   43.6388 c8         1 CLA     -0.148500
      3 CAC        72.8183   58.0995   43.0640 a2         1 CLA     -0.012600
      4 CAD        75.6110   56.1665   35.5526 ck         1 CLA      0.398800
      5 NA         78.7346   59.0978   38.0450 ns         1 CLA     -0.225500
      6 CBA        81.0946   58.7528   33.6590 a2         1 CLA     -0.135000
      7 CBB        80.8071   62.8232   44.2299 c0         1 CLA     -0.395200
      8 CBC        72.9675   56.5713   43.1748 a3         1 CLA     -0.037700
      9 CBD        77.0773   56.7643   35.3404 a1         1 CLA     -0.053900
     10 NB         78.5271   60.6900   40.6355 nm         1 CLA     -0.295700
     11 OBD        75.0657   55.3023   34.8512 o2         1 CLA     -0.494600
     12 CGA        81.6468   57.3882   33.1045 c4         1 CLA      0.827000
     13 CGD        77.9662   55.5875   35.2891 c4         1 CLA      0.655300
     14 ND         75.9253   58.1103   38.5528 nm         1 CLA     -0.291600
     15 CED        78.7910   53.5792   36.3006 a3         1 CLA      0.005400
     16 CHA        77.4323   57.6646   36.6095 cs         1 CLA     -0.123800
     17 CHB        80.5005   60.3857   39.1281 aa         1 CLA     -0.291900
     18 CHC        77.1365   60.9952   42.6302 aa         1 CLA     -0.090400
     19 CHD        74.1319   57.9246   40.1853 aa         1 CLA     -0.052000
     20 CMA        82.2298   58.2656   37.1816 a3         1 CLA     -0.230700
     21 CMB        81.6821   62.4650   41.1115 a3         1 CLA     -0.180800
     22 CMC        74.9249   59.9799   44.7535 a3         1 CLA     -0.134000
     23 CMD        72.7606   56.2634   37.8075 a3         1 CLA     -0.141100
     24 C1         82.3532   55.2914   33.9943 a2         1 CLA      0.023000
     25 C1A        78.6175   58.3128   36.9128 ac         1 CLA     -0.015100
     26 C1B        79.7964   60.9151   40.2998 cr         1 CLA      0.054700
     27 C1C        76.0847   60.0738   42.3277 cn         1 CLA     -0.005600
     28 C1D        74.6517   57.6108   38.8942 ap         1 CLA     -0.047300
     29 O1A        81.4483   56.9077   32.0280 o2         1 CLA     -0.610800
     30 O1D        78.8430   55.4275   34.4285 o2         1 CLA     -0.558200
     31 C2         83.1416   54.6411   35.1308 c8         1 CLA     -0.325100
     32 C2A        79.8788   58.2831   36.0361 a1         1 CLA      0.098600
     33 C2B        80.3810   61.7658   41.3172 cb         1 CLA      0.088500
     34 C2C        75.0121   59.5851   43.2711 cb         1 CLA      0.053700
     35 C2D        74.1508   56.7652   37.8206 cb         1 CLA      0.058900
     36 O2A        82.2302   56.7739   34.1962 o1         1 CLA     -0.437200
     37 O2D        77.7638   54.6623   36.3163 o1         1 CLA     -0.357600
     38 C3         84.3940   54.1590   35.1612 c5         1 CLA      0.031200
     39 C3A        80.9092   59.0011   36.9153 a1         1 CLA      0.166800
     40 C3B        79.4464   61.9629   42.3496 cb         1 CLA      0.035000
     41 C3C        74.0649   58.7978   42.5230 cb         1 CLA     -0.089900
     42 C3D        75.2339   56.6976   36.8140 cb         1 CLA     -0.035900
     43 C4         84.6654   52.7121   34.9195 a3         1 CLA     -0.053300
     44 C4A        80.0458   59.5103   38.1371 ac         1 CLA      0.001800
     45 C4B        78.3241   61.2085   41.8830 cn         1 CLA     -0.020900
     46 C4C        74.6672   58.6651   41.2292 cr         1 CLA     -0.044400
     47 C4D        76.2417   57.5930   37.3386 c6         1 CLA     -0.046000
     48 C5         85.5613   55.0816   35.5446 a2         1 CLA     -0.070400
     49 C6         85.6030   55.8350   36.8705 a2         1 CLA      0.043900
     50 C7         86.9194   56.6820   37.0053 a2         1 CLA     -0.150000
     51 C8         87.1415   57.4779   38.2662 a1         1 CLA      0.064200
     52 C9         88.3475   58.3847   38.0358 a3         1 CLA     -0.259300
     53 C10        87.5135   56.5040   39.4971 a2         1 CLA     -0.071900
     54 C11        87.7501   57.1885   40.9651 a2         1 CLA      0.014500
     55 C12        88.6211   56.3433   41.9232 a2         1 CLA     -0.112100
     56 C13        88.7941   56.9147   43.3515 a1         1 CLA      0.089200
     57 C14        90.0528   56.2846   43.8826 a3         1 CLA     -0.239100
     58 C15        87.5659   56.7013   44.2434 a2         1 CLA     -0.102200
     59 C16        87.4843   57.4747   45.5541 a2         1 CLA      0.023900
     60 C17        86.2303   57.0426   46.2876 a2         1 CLA     -0.105700
     61 C18        85.7491   57.8038   47.4801 a1         1 CLA      0.206800
     62 C19        84.4043   57.1434   47.9166 a3         1 CLA     -0.280100
     63 C20        86.8366   57.6837   48.5878 a3         1 CLA     -0.280100
     64 NC         75.8940   59.4153   41.1230 nx         1 CLA     -0.309200
     65 MG         77.2000   59.4173   39.6206 mg         1 CLA      0.895000
     66 HMD3       72.0866   57.0994   37.7651 dc         1 CLA      0.064300
     67 HMD2       72.6728   55.5611   36.9676 dc         1 CLA      0.064300
     68 HMD1       72.6162   55.7463   38.7863 dc         1 CLA      0.064300
     69 HMC3       73.9088   59.6795   45.0581 dc         1 CLA      0.052100
     70 HMC2       75.6567   59.5237   45.4605 dc         1 CLA      0.052100
     71 HMC1       75.0127   61.0421   44.8811 dc         1 CLA      0.052100
     72 HMB3       81.8599   62.6043   40.0763 dc         1 CLA      0.063600
     73 HMB2       81.7660   63.4213   41.5247 dc         1 CLA      0.063600
     74 HMB1       82.3907   61.7329   41.5037 dc         1 CLA      0.063600
     75 HMA3       82.1648   57.3117   37.7310 dc         1 CLA      0.058300
     76 HMA2       82.7508   58.0658   36.3014 dc         1 CLA      0.058300
     77 HMA1       82.7929   58.9453   37.7863 dc         1 CLA      0.058300
     78 HED3       79.7784   54.0734   36.4220 dc         1 CLA      0.079300
     79 HED2       78.6560   52.8710   37.0876 dc         1 CLA      0.079300
     80 HED1       78.7943   53.0524   35.3308 dc         1 CLA      0.079300
     81 HBC3       73.5689   56.1177   42.3231 dc         1 CLA      0.016300
     82 HBC2       73.5678   56.3427   44.0289 dc         1 CLA      0.016300
     83 HBC1       72.0155   56.0009   43.2225 dc         1 CLA      0.016300
     84 HBB2       80.8506   63.3542   45.2207 da         1 CLA      0.183000
     85 HBB1       81.6770   62.3523   43.8295 da         1 CLA      0.183000
     86 HBA2       80.8804   59.3077   32.7423 dc         1 CLA      0.029400
     87 HBA1       81.9312   59.1980   34.1712 dc         1 CLA      0.029400
     88 HAC2       72.4557   58.5849   43.9723 dc         1 CLA      0.029300
     89 HAC1       71.9991   58.1209   42.3650 dc         1 CLA      0.029300
     90 HAA2       79.0186   58.3447   33.9582 dc         1 CLA      0.028700
     91 HAA1       79.4143   59.8242   34.6115 dc         1 CLA      0.028700
     92 H203       86.9740   56.6532   48.8104 dc         1 CLA      0.065600
     93 H202       87.7567   58.1922   48.3394 dc         1 CLA      0.065600
     94 H201       86.5262   58.2063   49.4641 dc         1 CLA      0.065600
     95 H193       83.7507   57.4810   47.1643 dc         1 CLA      0.065600
     96 H192       84.5280   56.0800   48.0860 dc         1 CLA      0.065600
     97 H191       83.9588   57.4529   48.8674 dc         1 CLA      0.065600
     98 H172       85.4477   56.9827   45.5502 dc         1 CLA      0.027600
     99 H171       86.4888   55.9891   46.5484 dc         1 CLA      0.027600
    100 H162       88.2565   57.1425   46.2123 dc         1 CLA      0.002900
    101 H161       87.6270   58.5482   45.3592 dc         1 CLA      0.002900
    102 H152       86.6151   56.9077   43.6901 dc         1 CLA      0.029100
    103 H151       87.3841   55.6692   44.4550 dc         1 CLA      0.029100
    104 H143       90.9238   56.5271   43.2676 dc         1 CLA      0.063600
    105 H142       90.1747   56.8823   44.8157 dc         1 CLA      0.063600
    106 H141       89.9768   55.2484   44.0035 dc         1 CLA      0.063600
    107 H122       88.0854   55.4411   41.9297 dc         1 CLA      0.032500
    108 H121       89.5727   56.1105   41.4435 dc         1 CLA      0.032500
    109 H112       88.2793   58.1215   40.8921 dc         1 CLA      0.006600
    110 H111       86.7321   57.3323   41.4222 dc         1 CLA      0.006600
    111 H102       86.6734   55.8011   39.4644 dc         1 CLA      0.024100
    112 H101       88.3517   55.8174   39.1875 dc         1 CLA      0.024100
    113 HHD        73.1861   57.5940   40.4337 da         1 CLA      0.174300
    114 HHC        76.9863   61.5875   43.5419 da         1 CLA      0.136800
    115 HHB        81.5439   60.7095   39.0687 da         1 CLA      0.138300
    116 HBD        77.2093   57.2748   34.3972 dc         1 CLA      0.107700
    117 HAB        78.7787   63.1748   44.0953 da         1 CLA      0.155200
    118 H93        88.5770   59.1415   38.7517 dc         1 CLA      0.069500
    119 H92        89.1716   57.7072   37.7472 dc         1 CLA      0.069500
    120 H91        88.1231   58.9905   37.1420 dc         1 CLA      0.069500
    121 H8         86.2237   58.0276   38.5477 dc         1 CLA      0.029300
    122 H72        87.7574   55.9943   36.9814 dc         1 CLA      0.044400
    123 H71        86.9371   57.2752   36.0598 dc         1 CLA      0.044400
    124 H62        84.6603   56.4416   36.8058 dc         1 CLA      0.015600
    125 H61        85.5581   55.0808   37.7242 dc         1 CLA      0.015600
    126 H52        86.4961   54.5146   35.4150 dc         1 CLA      0.033200
    127 H51        85.5747   55.7410   34.6537 dc         1 CLA      0.033200
    128 H43        83.7918   52.0271   34.8709 dc         1 CLA      0.037000
    129 H42        85.1357   52.6364   33.9211 dc         1 CLA      0.037000
    130 H41        85.3127   52.3317   35.7507 dc         1 CLA      0.037000
    131 H3A        81.2193   59.8784   36.3924 dc         1 CLA      0.041100
    132 H2A        80.1492   57.2574   36.1074 dc         1 CLA      0.083100
    133 H2         82.6521   54.5681   36.1126 da         1 CLA      0.180900
    134 H18        85.6028   58.8462   47.2667 dc         1 CLA     -0.003900
    135 H13        88.9667   57.9354   43.1681 dc         1 CLA      0.019700
    136 H12        81.3116   54.8741   33.9907 dc         1 CLA      0.120400
    137 H11        82.8035   54.9608   33.0451 dc         1 CLA      0.120400
    138 C1         69.7833   61.5021   50.3347 Z1         2 LUT      0.509236
    139 C2         69.3050   62.3010   51.6646 Z2         2 LUT     -0.434695
    140 C3         67.9318   62.8594   51.4481 Z3         2 LUT      0.437453
    141 O3         67.3963   63.4318   52.5665 S1         2 LUT     -0.547129
    142 C4         67.8999   63.8075   50.3049 Z4         2 LUT     -0.468603
    143 C5         68.3968   63.2041   48.9681 Z5         2 LUT      0.279246
    144 C6         69.2569   62.1289   48.9056 Z6         2 LUT     -0.305473
    145 C7         70.0444   61.7336   47.6690 Z7         2 LUT      0.069402
    146 C8         70.9730   62.5148   47.0985 Z8         2 LUT     -0.191631
    147 C9         71.7793   62.2008   45.9352 Z9         2 LUT      0.196698
    148 C10        72.7311   63.0824   45.4720 Y1         2 LUT     -0.208611
    149 C11        73.4513   63.1103   44.1981 Y2         2 LUT      0.030784
    150 C12        74.6091   63.7999   43.8712 Y3         2 LUT     -0.220316
    151 C13        75.3169   63.7533   42.5768 Y4         2 LUT      0.215937
    152 C14        76.5016   64.4498   42.4550 Y5         2 LUT     -0.185793
    153 C15        77.4986   64.4312   41.3929 Y6         2 LUT     -0.057835
    154 C16        69.3428   60.0593   50.5490 Y7         2 LUT     -0.405615
    155 C17        71.2866   61.2493   50.3675 Y7         2 LUT     -0.405615
    156 C18        68.1570   64.1564   47.8617 Y9         2 LUT     -0.369639
    157 C19        71.5478   60.9272   45.1841 W1         2 LUT     -0.333362
    158 C20        74.5514   63.1411   41.3834 W2         2 LUT     -0.323439
    159 C21        88.7657   66.0720   35.2258 Z1         2 LUT      0.406104
    160 C22        89.3555   65.3913   34.0199 Z2         2 LUT     -0.404965
    161 C23        89.3780   66.1352   32.6760 Z3         2 LUT      0.391255
    162 O23        89.6418   65.1124   31.6645 S1         2 LUT     -0.528210
    163 C24        88.1487   67.0342   32.4987 W6         2 LUT     -0.258361
    164 C25        87.2041   67.2067   33.4081 Z5         2 LUT      0.133546
    165 C26        87.2260   66.4438   34.7444 W8         2 LUT     -0.147008
    166 C27        86.5053   67.1194   35.8669 Z7         2 LUT      0.023843
    167 C28        85.4304   66.5955   36.4728 Z8         2 LUT     -0.216987
    168 C29        84.8026   67.1359   37.7022 Z9         2 LUT      0.206524
    169 C30        83.6422   66.5429   38.0350 Y1         2 LUT     -0.215556
    170 C31        82.8111   66.6697   39.2822 Y2         2 LUT      0.025142
    171 C32        81.6285   65.9926   39.4525 Y3         2 LUT     -0.212209
    172 C33        80.7140   66.1062   40.5339 Y4         2 LUT      0.240937
    173 C34        79.5412   65.4657   40.4602 Y5         2 LUT     -0.218862
    174 C35        78.4915   65.3348   41.4687 Y6         2 LUT     -0.023547
    175 C36        89.6990   67.3571   35.4356 Y7         2 LUT     -0.393485
    176 C37        88.7535   65.2151   36.5224 Y7         2 LUT     -0.393485
    177 C38        86.1260   68.2102   33.1601 Y9         2 LUT     -0.387526
    178 C39        85.4114   68.2444   38.5498 W1         2 LUT     -0.322618
    179 C40        81.0472   67.1475   41.6345 W2         2 LUT     -0.358472
    180 H403       80.1962   67.6977   42.1098 R7         2 LUT      0.097720
    181 H402       81.7056   66.6942   42.3609 R7         2 LUT      0.097720
    182 H401       81.5413   68.0194   41.1373 R7         2 LUT      0.097720
    183 H393       84.7270   68.8761   39.0739 R4         2 LUT      0.082505
    184 H392       86.0577   67.8169   39.2147 R4         2 LUT      0.082505
    185 H391       86.0729   68.8840   38.0337 R4         2 LUT      0.082505
    186 H383       86.3132   68.8163   32.2500 R1         2 LUT      0.104030
    187 H382       85.2030   67.7098   32.9697 R1         2 LUT      0.104030
    188 H381       86.0330   68.9077   34.0286 R1         2 LUT      0.104030
    189 H373       89.8435   65.0022   36.7679 T4         2 LUT      0.089537
    190 H372       88.3006   65.6123   37.4136 T4         2 LUT      0.089537
    191 H371       88.4066   64.1441   36.3246 T4         2 LUT      0.089537
    192 H363       90.6983   66.9503   35.5862 T4         2 LUT      0.089537
    193 H362       89.7405   67.9523   34.5350 T4         2 LUT      0.089537
    194 H361       89.4168   67.9077   36.2983 T4         2 LUT      0.089537
    195 H222       90.4421   65.1341   34.2300 U2         2 LUT      0.127376
    196 H221       88.7940   64.4108   33.9373 U2         2 LUT      0.127376
    197 H203       73.7661   63.7847   41.0059 R7         2 LUT      0.087068
    198 H202       75.2168   62.9606   40.5660 R7         2 LUT      0.087068
    199 H201       74.1678   62.1326   41.5393 R7         2 LUT      0.087068
    200 H193       70.5106   60.8265   44.9004 R4         2 LUT      0.089716
    201 H192       72.1017   60.8757   44.2291 R4         2 LUT      0.089716
    202 H191       71.7114   60.0228   45.6866 R4         2 LUT      0.089716
    203 H183       68.6218   63.8487   46.8953 R1         2 LUT      0.094572
    204 H182       67.1102   64.2824   47.5448 R1         2 LUT      0.094572
    205 H181       68.5773   65.1190   48.1277 R1         2 LUT      0.094572
    206 H173       71.8447   62.2296   50.2058 T4         2 LUT      0.093752
    207 H172       71.5656   60.8866   51.2956 T4         2 LUT      0.093752
    208 H171       71.6700   60.5133   49.6165 T4         2 LUT      0.093752
    209 H163       69.6020   59.4079   49.7097 T4         2 LUT      0.093752
    210 H162       69.6300   59.4852   51.4280 T4         2 LUT      0.093752
    211 H161       68.2864   60.0278   50.4971 T4         2 LUT      0.093752
    212 HO3        66.9372   62.8552   53.2234 Q1         2 LUT      0.300121
    213 H8         71.1323   63.5807   47.3797 U7         2 LUT      0.080784
    214 H7         69.9893   60.6866   47.5013 U6         2 LUT      0.042190
    215 H42        66.9104   64.2854   50.2814 U5         2 LUT      0.145166
    216 H41        68.5477   64.7225   50.4345 U5         2 LUT      0.145166
    217 H35        78.5439   65.9844   42.3046 T3         2 LUT      0.077919
    218 H34        79.3544   64.8579   39.6265 T2         2 LUT      0.073626
    219 H32        81.3955   65.3830   38.5644 T1         2 LUT      0.092510
    220 H31        83.2930   67.2368   40.0060 U9         2 LUT      0.070048
    221 H30        83.2790   65.6938   37.4239 U8         2 LUT      0.085442
    222 H3         67.1915   62.1237   51.0780 U3         2 LUT     -0.031596
    223 H28        84.9780   65.6360   36.2563 U7         2 LUT      0.084728
    224 H27        86.9937   68.0573   36.2029 U6         2 LUT      0.087291
    225 H26        86.6717   65.5197   34.4189 Q6         2 LUT      0.075325
    226 H24        88.1969   67.7053   31.5367 Q5         2 LUT      0.094482
    227 H23        90.1912   66.8362   32.6515 U3         2 LUT     -0.024869
    228 H22        69.2697   61.6770   52.5598 U2         2 LUT      0.127376
    229 H21        70.0247   63.0674   51.8027 U2         2 LUT      0.127376
    230 H15        77.4137   63.7480   40.5269 T3         2 LUT      0.093200
    231 H14        76.7754   65.0511   43.2965 T2         2 LUT      0.068865
    232 H12        75.0712   64.4226   44.6075 T1         2 LUT      0.095507
    233 H11        73.0394   62.5363   43.3733 U9         2 LUT      0.068930
    234 H10        72.8132   64.0721   45.9546 U8         2 LUT      0.083911
    235 H1         89.5545   65.4773   30.8052 Q1         2 LUT      0.297311
@<TRIPOS>BOND
    1     6     1 1
    2     7     2 1
    3     8     3 1
    4     9     4 1
    5    11     4 1
    6    12     6 1
    7    13     9 1
    8    16     9 1
    9    25     5 1
   10    25    16 1
   11    26    10 1
   12    26    17 1
   13    27    18 1
   14    28    14 1
   15    28    19 1
   16    29    12 1
   17    30    13 1
   18    31    24 1
   19    32     1 1
   20    32    25 1
   21    33    21 1
   22    33    26 1
   23    34    22 1
   24    34    27 1
   25    35    23 1
   26    35    28 1
   27    36    12 1
   28    36    24 1
   29    37    13 1
   30    37    15 1
   31    38    31 1
   32    39    20 1
   33    39    32 1
   34    40     2 1
   35    40    33 1
   36    41     3 1
   37    41    34 1
   38    42     4 1
   39    42    35 1
   40    43    38 1
   41    44     5 1
   42    44    17 1
   43    44    39 1
   44    45    10 1
   45    45    18 1
   46    45    40 1
   47    46    19 1
   48    46    41 1
   49    47    14 1
   50    47    16 1
   51    47    42 1
   52    48    38 1
   53    49    48 1
   54    50    49 1
   55    51    50 1
   56    52    51 1
   57    53    51 1
   58    54    53 1
   59    55    54 1
   60    56    55 1
   61    57    56 1
   62    58    56 1
   63    59    58 1
   64    60    59 1
   65    61    60 1
   66    62    61 1
   67    63    61 1
   68    64    27 1
   69    64    46 1
   70    65     5 1
   71    65    10 1
   72    65    64 1
   73    65    14 1
   74    66    23 1
   75    67    23 1
   76    68    23 1
   77    69    22 1
   78    70    22 1
   79    71    22 1
   80    72    21 1
   81    73    21 1
   82    74    21 1
   83    75    20 1
   84    76    20 1
   85    77    20 1
   86    78    15 1
   87    79    15 1
   88    80    15 1
   89    81     8 1
   90    82     8 1
   91    83     8 1
   92    84     7 1
   93    85     7 1
   94    86     6 1
   95    87     6 1
   96    88     3 1
   97    89     3 1
   98    90     1 1
   99    91     1 1
  100    92    63 1
  101    93    63 1
  102    94    63 1
  103    95    62 1
  104    96    62 1
  105    97    62 1
  106    98    60 1
  107    99    60 1
  108   100    59 1
  109   101    59 1
  110   102    58 1
  111   103    58 1
  112   104    57 1
  113   105    57 1
  114   106    57 1
  115   107    55 1
  116   108    55 1
  117   109    54 1
  118   110    54 1
  119   111    53 1
  120   112    53 1
  121   113    19 1
  122   114    18 1
  123   115    17 1
  124   116     9 1
  125   117     2 1
  126   118    52 1
  127   119    52 1
  128   120    52 1
  129   121    51 1
  130   122    50 1
  131   123    50 1
  132   124    49 1
  133   125    49 1
  134   126    48 1
  135   127    48 1
  136   128    43 1
  137   129    43 1
  138   130    43 1
  139   131    39 1
  140   132    32 1
  141   133    31 1
  142   134    61 1
  143   135    56 1
  144   136    24 1
  145   137    24 1
  146   139   138 1
  147   140   139 1
  148   141   140 1
  149   142   140 1
  150   143   142 1
  151   144   138 1
  152   144   143 1
  153   145   144 1
  154   146   145 1
  155   147   146 1
  156   148   147 1
  157   149   148 1
  158   150   149 1
  159   151   150 1
  160   152   151 1
  161   153   152 1
  162   154   138 1
  163   155   138 1
  164   156   143 1
  165   157   147 1
  166   158   151 1
  167   160   159 1
  168   161   160 1
  169   162   161 1
  170   163   161 1
  171   164   163 1
  172   165   159 1
  173   165   164 1
  174   166   165 1
  175   167   166 1
  176   168   167 1
  177   169   168 1
  178   170   169 1
  179   171   170 1
  180   172   171 1
  181   173   172 1
  182   174   153 1
  183   174   173 1
  184   175   159 1
  185   176   159 1
  186   177   164 1
  187   178   168 1
  188   179   172 1
  189   180   179 1
  190   181   179 1
  191   182   179 1
  192   183   178 1
  193   184   178 1
  194   185   178 1
  195   186   177 1
  196   187   177 1
  197   188   177 1
  198   189   176 1
  199   190   176 1
  200   191   176 1
  201   192   175 1
  202   193   175 1
  203   194   175 1
  204   195   160 1
  205   196   160 1
  206   197   158 1
  207   198   158 1
  208   199   158 1
  209   200   157 1
  210   201   157 1
  211   202   157 1
  212   203   156 1
  213   204   156 1
  214   205   156 1
  215   206   155 1
  216   207   155 1
  217   208   155 1
  218   209   154 1
  219   210   154 1
  220   211   154 1
  221   212   141 1
  222   213   146 1
  223   214   145 1
  224   215   142 1
  225   216   142 1
  226   217   174 1
  227   218   173 1
  228   219   171 1
  229   220   170 1
  230   221   169 1
  231   222   140 1
  232   223   167 1
  233   224   166 1
  234   225   165 1
  235   226   163 1
  236   227   161 1
  237   228   139 1
  238   229   139 1
  239   230   153 1
  240   231   152 1
  241   232   150 1
  242   233   149 1
  243   234   148 1
  244   235   162 1
  245   65    153 1
  246   65    174 1
@<TRIPOS>SUBSTRUCTURE
      1 CLA               1 ****               0 ****  **** 
      2 LUT             138 ****               0 ****  **** 
