@<TRIPOS>MOLECULE
Cpptraj generated mol2 file.
  235   246     2     0     0
SMALL
USER_CHARGES


@<TRIPOS>ATOM
      1 CAA        79.1149   57.4363   34.9786 a2         1 CLA     -0.055900
      2 CAB        78.7661   62.0838   43.7354 c8         1 CLA     -0.148500
      3 CAC        71.8494   57.7255   43.4353 a2         1 CLA     -0.012600
      4 CAD        74.9249   54.9044   36.4723 ck         1 CLA      0.398800
      5 NA         77.9461   58.1086   38.4146 ns         1 CLA     -0.225500
      6 CBA        80.4947   57.3621   34.2674 a2         1 CLA     -0.135000
      7 CBB        79.9947   62.2985   44.2414 c0         1 CLA     -0.395200
      8 CBC        71.9441   56.1894   43.7414 a3         1 CLA     -0.037700
      9 CBD        76.3832   55.4931   36.1300 a1         1 CLA     -0.053900
     10 NB         77.6983   59.8625   40.8605 nm         1 CLA     -0.295700
     11 OBD        74.3218   54.0507   35.8481 o2         1 CLA     -0.494600
     12 CGA        80.9014   55.8770   34.0015 c4         1 CLA      0.827000
     13 CGD        77.3975   54.4894   35.8630 c4         1 CLA      0.655300
     14 ND         75.2275   57.2103   39.1621 nm         1 CLA     -0.291600
     15 CED        77.8746   52.3042   36.3681 a3         1 CLA      0.005400
     16 CHA        76.7017   56.4339   37.2411 cs         1 CLA     -0.123800
     17 CHB        79.5898   59.8836   39.1943 aa         1 CLA     -0.291900
     18 CHC        76.3583   60.1822   42.9773 aa         1 CLA     -0.090400
     19 CHD        73.2437   57.1994   40.6321 aa         1 CLA     -0.052000
     20 CMA        81.3269   57.7705   38.0205 a3         1 CLA     -0.230700
     21 CMB        80.8071   61.9877   41.1128 a3         1 CLA     -0.180800
     22 CMC        74.1164   59.6332   45.0872 a3         1 CLA     -0.134000
     23 CMD        71.9963   55.2465   38.4598 a3         1 CLA     -0.141100
     24 C1         81.5462   53.7580   34.8851 a2         1 CLA      0.023000
     25 C1A        77.8520   57.2559   37.3964 ac         1 CLA     -0.015100
     26 C1B        78.9443   60.2769   40.4248 cr         1 CLA      0.054700
     27 C1C        75.2472   59.3295   42.7389 cn         1 CLA     -0.005600
     28 C1D        73.9297   56.7976   39.4735 ap         1 CLA     -0.047300
     29 O1A        80.8811   55.3497   32.9008 o2         1 CLA     -0.610800
     30 O1D        78.1889   54.4957   34.9427 o2         1 CLA     -0.558200
     31 C2         81.9299   53.1344   36.2201 c8         1 CLA     -0.325100
     32 C2A        79.1987   57.1860   36.5727 a1         1 CLA      0.098600
     33 C2B        79.4478   61.2253   41.3577 cb         1 CLA      0.088500
     34 C2C        74.1696   59.0113   43.6575 cb         1 CLA      0.053700
     35 C2D        73.4020   55.8476   38.5045 cb         1 CLA      0.058900
     36 O2A        81.3458   55.2026   35.0768 o1         1 CLA     -0.437200
     37 O2D        77.3251   53.5086   36.8345 o1         1 CLA     -0.357600
     38 C3         83.1813   53.2988   36.7704 c5         1 CLA      0.031200
     39 C3A        80.0947   58.2695   37.2627 a1         1 CLA      0.166800
     40 C3B        78.5628   61.3074   42.4572 cb         1 CLA      0.035000
     41 C3C        73.2158   58.2646   42.9893 cb         1 CLA     -0.089900
     42 C3D        74.4951   55.6237   37.6375 cb         1 CLA     -0.035900
     43 C4         84.4044   52.4699   36.5253 a3         1 CLA     -0.053300
     44 C4A        79.1196   58.8696   38.3697 ac         1 CLA      0.001800
     45 C4B        77.4421   60.4514   42.0835 cn         1 CLA     -0.020900
     46 C4C        73.7650   58.0787   41.6177 cr         1 CLA     -0.044400
     47 C4D        75.5461   56.5227   38.0404 c6         1 CLA     -0.046000
     48 C5         83.1268   54.1829   38.0035 a2         1 CLA     -0.070400
     49 C6         84.2695   55.2115   38.2309 a2         1 CLA      0.043900
     50 C7         84.2462   55.7128   39.7317 a2         1 CLA     -0.150000
     51 C8         84.9282   57.1257   39.8236 a1         1 CLA      0.064200
     52 C9         86.4621   57.2107   39.3312 a3         1 CLA     -0.259300
     53 C10        84.8092   57.7747   41.1751 a2         1 CLA     -0.071900
     54 C11        83.4276   57.9871   41.7987 a2         1 CLA      0.014500
     55 C12        83.4471   59.0151   42.8903 a2         1 CLA     -0.112100
     56 C13        84.4540   58.8809   44.1060 a1         1 CLA      0.089200
     57 C14        84.2887   57.6178   44.9123 a3         1 CLA     -0.239100
     58 C15        84.5931   60.2067   44.9440 a2         1 CLA     -0.102200
     59 C16        83.4367   60.6796   45.7793 a2         1 CLA      0.023900
     60 C17        83.8501   61.9622   46.5687 a2         1 CLA     -0.105700
     61 C18        82.8418   62.7026   47.4274 a1         1 CLA      0.206800
     62 C19        82.0450   61.8988   48.4848 a3         1 CLA     -0.280100
     63 C20        83.6308   63.8390   48.1022 a3         1 CLA     -0.280100
     64 NC         74.9773   58.7249   41.5045 nx         1 CLA     -0.309200
     65 MG         76.3333   58.6084   39.8627 mg         1 CLA      0.895000
     66 HMD3       71.3762   55.8235   37.7503 dc         1 CLA      0.064300
     67 HMD2       72.0197   54.2667   37.9226 dc         1 CLA      0.064300
     68 HMD1       71.6243   55.1621   39.4907 dc         1 CLA      0.064300
     69 HMC3       73.7892   60.6896   45.1271 dc         1 CLA      0.052100
     70 HMC2       73.5508   59.0709   45.8163 dc         1 CLA      0.052100
     71 HMC1       75.0531   59.6841   45.5205 dc         1 CLA      0.052100
     72 HMB3       80.9475   62.7906   41.8142 dc         1 CLA      0.063600
     73 HMB2       81.7108   61.3044   41.2320 dc         1 CLA      0.063600
     74 HMB1       80.9022   62.2348   40.1084 dc         1 CLA      0.063600
     75 HMA3       81.1117   56.7022   38.4132 dc         1 CLA      0.058300
     76 HMA2       82.1129   57.7555   37.3524 dc         1 CLA      0.058300
     77 HMA1       81.5507   58.3831   38.8739 dc         1 CLA      0.058300
     78 HED3       78.9476   52.4115   36.2126 dc         1 CLA      0.079300
     79 HED2       77.6783   51.5870   37.1576 dc         1 CLA      0.079300
     80 HED1       77.4910   51.9688   35.4553 dc         1 CLA      0.079300
     81 HBC3       72.3094   55.7349   42.7932 dc         1 CLA      0.016300
     82 HBC2       72.6672   55.9462   44.6083 dc         1 CLA      0.016300
     83 HBC1       70.9248   55.8930   43.9992 dc         1 CLA      0.016300
     84 HBB2       80.2205   62.7780   45.2399 da         1 CLA      0.183000
     85 HBB1       80.8385   61.7930   43.7651 da         1 CLA      0.183000
     86 HBA2       80.2941   57.9125   33.3407 dc         1 CLA      0.029400
     87 HBA1       81.2586   57.9544   34.8635 dc         1 CLA      0.029400
     88 HAC2       71.4320   58.2497   44.3202 dc         1 CLA      0.029300
     89 HAC1       71.1313   57.8188   42.6056 dc         1 CLA      0.029300
     90 HAA2       78.4261   56.7835   34.3853 dc         1 CLA      0.028700
     91 HAA1       78.7314   58.3316   34.7158 dc         1 CLA      0.028700
     92 H203       84.1420   63.4262   49.0101 dc         1 CLA      0.065600
     93 H202       84.3550   64.2860   47.4378 dc         1 CLA      0.065600
     94 H201       82.7999   64.5173   48.3989 dc         1 CLA      0.065600
     95 H193       81.3449   61.2655   47.9506 dc         1 CLA      0.065600
     96 H192       82.6857   61.3105   49.2179 dc         1 CLA      0.065600
     97 H191       81.5916   62.6499   49.1206 dc         1 CLA      0.065600
     98 H172       84.5577   61.5308   47.2633 dc         1 CLA      0.027600
     99 H171       84.3357   62.7021   45.9092 dc         1 CLA      0.027600
    100 H162       82.5703   61.0195   45.1752 dc         1 CLA      0.002900
    101 H161       83.0355   59.8254   46.2947 dc         1 CLA      0.002900
    102 H152       85.3281   60.1516   45.6911 dc         1 CLA      0.029100
    103 H151       84.8639   61.0478   44.3029 dc         1 CLA      0.029100
    104 H143       84.7212   57.6620   45.9698 dc         1 CLA      0.063600
    105 H142       83.1859   57.4185   44.8773 dc         1 CLA      0.063600
    106 H141       84.7253   56.7949   44.4563 dc         1 CLA      0.063600
    107 H122       83.6749   59.9716   42.4767 dc         1 CLA      0.032500
    108 H121       82.4876   58.9497   43.4046 dc         1 CLA      0.032500
    109 H112       82.6701   58.1468   41.0385 dc         1 CLA      0.006600
    110 H111       83.2106   57.0496   42.2368 dc         1 CLA      0.006600
    111 H102       85.5114   57.3023   41.9167 dc         1 CLA      0.024100
    112 H101       85.2461   58.7679   41.1470 dc         1 CLA      0.024100
    113 HHD        72.3071   56.7699   40.7894 da         1 CLA      0.174300
    114 HHC        76.4549   60.6936   43.9284 da         1 CLA      0.136800
    115 HHB        80.6297   60.2589   39.0211 da         1 CLA      0.138300
    116 HBD        76.2814   56.0048   35.1848 dc         1 CLA      0.107700
    117 HAB        77.8990   62.4091   44.3150 da         1 CLA      0.155200
    118 H93        86.9697   56.5580   40.0702 dc         1 CLA      0.069500
    119 H92        86.6670   56.6557   38.4500 dc         1 CLA      0.069500
    120 H91        86.7799   58.2505   39.1579 dc         1 CLA      0.069500
    121 H8         84.3064   57.6106   39.0719 dc         1 CLA      0.029300
    122 H72        83.1841   55.9791   39.8762 dc         1 CLA      0.044400
    123 H71        84.5017   54.9276   40.4206 dc         1 CLA      0.044400
    124 H62        85.1804   54.7525   37.9937 dc         1 CLA      0.015600
    125 H61        84.0586   55.9969   37.4956 dc         1 CLA      0.015600
    126 H52        82.1463   54.6166   38.0483 dc         1 CLA      0.033200
    127 H51        83.2699   53.4478   38.7811 dc         1 CLA      0.033200
    128 H43        85.0459   53.2549   36.0405 dc         1 CLA      0.037000
    129 H42        84.9126   52.0186   37.4518 dc         1 CLA      0.037000
    130 H41        84.2544   51.6893   35.7117 dc         1 CLA      0.037000
    131 H3A        80.3055   59.1078   36.5417 dc         1 CLA      0.041100
    132 H2A        79.5971   56.1218   36.6889 dc         1 CLA      0.083100
    133 H2         81.4492   52.3351   36.6618 da         1 CLA      0.180900
    134 H18        82.1702   63.1841   46.7139 dc         1 CLA     -0.003900
    135 H13        85.4019   58.8335   43.6544 dc         1 CLA      0.019700
    136 H12        80.5874   53.3252   34.5852 dc         1 CLA      0.120400
    137 H11        82.2558   53.5189   34.0598 dc         1 CLA      0.120400
    138 C1         68.4538   61.1021   49.9977 Z1         2 LUT      0.509236
    139 C2         67.1894   60.8144   50.7953 Z2         2 LUT     -0.434695
    140 C3         66.2446   61.9809   51.1101 Z3         2 LUT      0.437453
    141 O3         66.5801   62.5351   52.4064 S1         2 LUT     -0.547129
    142 C4         66.3115   63.1154   50.0893 Z4         2 LUT     -0.468603
    143 C5         67.0227   62.8598   48.7479 Z5         2 LUT      0.279246
    144 C6         68.0034   61.9852   48.7166 Z6         2 LUT     -0.305473
    145 C7         68.4989   61.5150   47.3851 Z7         2 LUT      0.069402
    146 C8         69.6086   61.8570   46.7088 Z8         2 LUT     -0.191631
    147 C9         70.0284   61.3647   45.3459 Z9         2 LUT      0.196698
    148 C10        71.0923   62.0101   44.8817 Y1         2 LUT     -0.208611
    149 C11        71.8642   61.8581   43.6032 Y2         2 LUT      0.030784
    150 C12        73.0282   62.6157   43.3029 Y3         2 LUT     -0.220316
    151 C13        73.8355   62.5858   42.1591 Y4         2 LUT      0.215937
    152 C14        74.9413   63.4311   42.1757 Y5         2 LUT     -0.185793
    153 C15        76.0442   63.4943   41.2642 Y6         2 LUT     -0.057835
    154 C16        69.0889   59.7953   49.5594 Y7         2 LUT     -0.405615
    155 C17        69.3979   61.8794   50.9063 Y7         2 LUT     -0.405615
    156 C18        66.5229   63.7374   47.7124 Y9         2 LUT     -0.369639
    157 C19        69.2669   60.1563   44.7149 W1         2 LUT     -0.333362
    158 C20        73.4635   61.7975   40.9101 W2         2 LUT     -0.323439
    159 C21        87.7360   64.8444   35.6433 Z1         2 LUT      0.406104
    160 C22        88.4572   64.4164   34.2719 Z2         2 LUT     -0.404965
    161 C23        88.4885   65.3503   33.0880 Z3         2 LUT      0.391255
    162 O23        89.2270   64.7087   32.0475 S1         2 LUT     -0.528210
    163 C24        87.1688   65.9462   32.8807 W6         2 LUT     -0.258361
    164 C25        86.1589   66.0467   33.7980 Z5         2 LUT      0.133546
    165 C26        86.3014   65.3974   35.2457 W8         2 LUT     -0.147008
    166 C27        85.5734   66.2223   36.3150 Z7         2 LUT      0.023843
    167 C28        84.4489   65.6948   36.8763 Z8         2 LUT     -0.216987
    168 C29        83.6523   66.1391   37.9791 Z9         2 LUT      0.206524
    169 C30        82.4929   65.4995   38.3491 Y1         2 LUT     -0.215556
    170 C31        81.5896   65.7692   39.4605 Y2         2 LUT      0.025142
    171 C32        80.3675   65.1249   39.7275 Y3         2 LUT     -0.212209
    172 C33        79.3445   65.3061   40.7159 Y4         2 LUT      0.240937
    173 C34        78.1796   64.5413   40.6344 Y5         2 LUT     -0.218862
    174 C35        76.9884   64.4621   41.4662 Y6         2 LUT     -0.023547
    175 C36        88.6177   65.9760   36.2953 Y7         2 LUT     -0.393485
    176 C37        87.7138   63.6470   36.5785 Y7         2 LUT     -0.393485
    177 C38        84.8461   66.7257   33.4252 Y9         2 LUT     -0.387526
    178 C39        84.1402   67.4436   38.5923 W1         2 LUT     -0.322618
    179 C40        79.5122   66.4480   41.6908 W2         2 LUT     -0.358472
    180 H403       80.4838   66.5755   42.1715 R7         2 LUT      0.097720
    181 H402       79.2822   67.3510   41.2149 R7         2 LUT      0.097720
    182 H401       78.8153   66.2658   42.4390 R7         2 LUT      0.097720
    183 H393       84.1558   68.1860   37.8019 R4         2 LUT      0.082505
    184 H392       83.4020   67.8529   39.3137 R4         2 LUT      0.082505
    185 H391       85.0887   67.3005   39.1118 R4         2 LUT      0.082505
    186 H383       84.5040   66.1374   32.6684 R1         2 LUT      0.104030
    187 H382       84.0543   66.6210   34.1786 R1         2 LUT      0.104030
    188 H381       84.9346   67.8077   33.0768 R1         2 LUT      0.104030
    189 H373       88.7444   63.3576   36.7277 T4         2 LUT      0.089537
    190 H372       87.1500   63.8880   37.5137 T4         2 LUT      0.089537
    191 H371       87.1822   62.8369   36.0509 T4         2 LUT      0.089537
    192 H363       88.8526   66.8095   35.6825 T4         2 LUT      0.089537
    193 H362       88.3077   66.4002   37.2769 T4         2 LUT      0.089537
    194 H361       89.5235   65.4365   36.5530 T4         2 LUT      0.089537
    195 H222       89.5310   64.2209   34.5012 U2         2 LUT      0.127376
    196 H221       88.0424   63.4937   33.8940 U2         2 LUT      0.127376
    197 H203       73.1431   60.7046   41.0795 R7         2 LUT      0.087068
    198 H202       72.6856   62.4032   40.4008 R7         2 LUT      0.087068
    199 H201       74.3149   61.6300   40.2594 R7         2 LUT      0.087068
    200 H193       68.2525   60.3506   44.4669 R4         2 LUT      0.089716
    201 H192       69.8198   59.7995   43.8391 R4         2 LUT      0.089716
    202 H191       69.2046   59.3925   45.4626 R4         2 LUT      0.089716
    203 H183       67.1215   64.6521   47.7034 R1         2 LUT      0.094572
    204 H182       66.4523   63.1735   46.7838 R1         2 LUT      0.094572
    205 H181       65.4909   64.0595   47.8955 R1         2 LUT      0.094572
    206 H173       68.8159   62.5236   51.5142 T4         2 LUT      0.093752
    207 H172       69.8402   61.1104   51.5869 T4         2 LUT      0.093752
    208 H171       70.1819   62.3685   50.3566 T4         2 LUT      0.093752
    209 H163       69.3238   59.0034   50.3244 T4         2 LUT      0.093752
    210 H162       68.4508   59.2294   48.8493 T4         2 LUT      0.093752
    211 H161       70.0769   60.0273   49.1310 T4         2 LUT      0.093752
    212 HO3        66.3034   61.8940   53.0921 Q1         2 LUT      0.300121
    213 H8         70.2128   62.6455   47.1564 U7         2 LUT      0.080784
    214 H7         67.8653   60.7329   46.9030 U6         2 LUT      0.042190
    215 H42        65.2619   63.4021   49.9186 U5         2 LUT      0.145166
    216 H41        66.8372   63.9824   50.5663 U5         2 LUT      0.145166
    217 H35        76.8542   65.1202   42.3222 T3         2 LUT      0.077919
    218 H34        78.0704   63.8875   39.7615 T2         2 LUT      0.073626
    219 H32        79.9602   64.4826   39.0264 T1         2 LUT      0.092510
    220 H31        81.8773   66.5000   40.1833 U9         2 LUT      0.070048
    221 H30        82.1775   64.7062   37.6850 U8         2 LUT      0.085442
    222 H3         65.2189   61.7571   51.2315 U3         2 LUT     -0.031596
    223 H28        83.8304   64.8605   36.3429 U7         2 LUT      0.084728
    224 H27        86.1651   67.0587   36.6941 U6         2 LUT      0.087291
    225 H26        85.6651   64.5465   34.9385 Q6         2 LUT      0.075325
    226 H24        87.0830   66.4259   31.9167 Q5         2 LUT      0.094482
    227 H23        89.0085   66.2460   33.3797 U3         2 LUT     -0.024869
    228 H22        66.5056   60.1031   50.1821 U2         2 LUT      0.127376
    229 H21        67.4806   60.2093   51.6569 U2         2 LUT      0.127376
    230 H15        76.1366   62.7638   40.4917 T3         2 LUT      0.093200
    231 H14        75.0017   64.1288   42.9513 T2         2 LUT      0.068865
    232 H12        73.2820   63.2944   44.0960 T1         2 LUT      0.095507
    233 H11        71.4465   61.0928   42.9142 U9         2 LUT      0.068930
    234 H10        71.6384   62.7100   45.4104 U8         2 LUT      0.083911
    235 H1         88.6219   64.2533   31.4314 Q1         2 LUT      0.297311
@<TRIPOS>BOND
    1     6     1 1
    2     7     2 1
    3     8     3 1
    4     9     4 1
    5    11     4 1
    6    12     6 1
    7    13     9 1
    8    16     9 1
    9    25     5 1
   10    25    16 1
   11    26    10 1
   12    26    17 1
   13    27    18 1
   14    28    14 1
   15    28    19 1
   16    29    12 1
   17    30    13 1
   18    31    24 1
   19    32     1 1
   20    32    25 1
   21    33    21 1
   22    33    26 1
   23    34    22 1
   24    34    27 1
   25    35    23 1
   26    35    28 1
   27    36    12 1
   28    36    24 1
   29    37    13 1
   30    37    15 1
   31    38    31 1
   32    39    20 1
   33    39    32 1
   34    40     2 1
   35    40    33 1
   36    41     3 1
   37    41    34 1
   38    42     4 1
   39    42    35 1
   40    43    38 1
   41    44     5 1
   42    44    17 1
   43    44    39 1
   44    45    10 1
   45    45    18 1
   46    45    40 1
   47    46    19 1
   48    46    41 1
   49    47    14 1
   50    47    16 1
   51    47    42 1
   52    48    38 1
   53    49    48 1
   54    50    49 1
   55    51    50 1
   56    52    51 1
   57    53    51 1
   58    54    53 1
   59    55    54 1
   60    56    55 1
   61    57    56 1
   62    58    56 1
   63    59    58 1
   64    60    59 1
   65    61    60 1
   66    62    61 1
   67    63    61 1
   68    64    27 1
   69    64    46 1
   70    65     5 1
   71    65    10 1
   72    65    64 1
   73    65    14 1
   74    66    23 1
   75    67    23 1
   76    68    23 1
   77    69    22 1
   78    70    22 1
   79    71    22 1
   80    72    21 1
   81    73    21 1
   82    74    21 1
   83    75    20 1
   84    76    20 1
   85    77    20 1
   86    78    15 1
   87    79    15 1
   88    80    15 1
   89    81     8 1
   90    82     8 1
   91    83     8 1
   92    84     7 1
   93    85     7 1
   94    86     6 1
   95    87     6 1
   96    88     3 1
   97    89     3 1
   98    90     1 1
   99    91     1 1
  100    92    63 1
  101    93    63 1
  102    94    63 1
  103    95    62 1
  104    96    62 1
  105    97    62 1
  106    98    60 1
  107    99    60 1
  108   100    59 1
  109   101    59 1
  110   102    58 1
  111   103    58 1
  112   104    57 1
  113   105    57 1
  114   106    57 1
  115   107    55 1
  116   108    55 1
  117   109    54 1
  118   110    54 1
  119   111    53 1
  120   112    53 1
  121   113    19 1
  122   114    18 1
  123   115    17 1
  124   116     9 1
  125   117     2 1
  126   118    52 1
  127   119    52 1
  128   120    52 1
  129   121    51 1
  130   122    50 1
  131   123    50 1
  132   124    49 1
  133   125    49 1
  134   126    48 1
  135   127    48 1
  136   128    43 1
  137   129    43 1
  138   130    43 1
  139   131    39 1
  140   132    32 1
  141   133    31 1
  142   134    61 1
  143   135    56 1
  144   136    24 1
  145   137    24 1
  146   139   138 1
  147   140   139 1
  148   141   140 1
  149   142   140 1
  150   143   142 1
  151   144   138 1
  152   144   143 1
  153   145   144 1
  154   146   145 1
  155   147   146 1
  156   148   147 1
  157   149   148 1
  158   150   149 1
  159   151   150 1
  160   152   151 1
  161   153   152 1
  162   154   138 1
  163   155   138 1
  164   156   143 1
  165   157   147 1
  166   158   151 1
  167   160   159 1
  168   161   160 1
  169   162   161 1
  170   163   161 1
  171   164   163 1
  172   165   159 1
  173   165   164 1
  174   166   165 1
  175   167   166 1
  176   168   167 1
  177   169   168 1
  178   170   169 1
  179   171   170 1
  180   172   171 1
  181   173   172 1
  182   174   153 1
  183   174   173 1
  184   175   159 1
  185   176   159 1
  186   177   164 1
  187   178   168 1
  188   179   172 1
  189   180   179 1
  190   181   179 1
  191   182   179 1
  192   183   178 1
  193   184   178 1
  194   185   178 1
  195   186   177 1
  196   187   177 1
  197   188   177 1
  198   189   176 1
  199   190   176 1
  200   191   176 1
  201   192   175 1
  202   193   175 1
  203   194   175 1
  204   195   160 1
  205   196   160 1
  206   197   158 1
  207   198   158 1
  208   199   158 1
  209   200   157 1
  210   201   157 1
  211   202   157 1
  212   203   156 1
  213   204   156 1
  214   205   156 1
  215   206   155 1
  216   207   155 1
  217   208   155 1
  218   209   154 1
  219   210   154 1
  220   211   154 1
  221   212   141 1
  222   213   146 1
  223   214   145 1
  224   215   142 1
  225   216   142 1
  226   217   174 1
  227   218   173 1
  228   219   171 1
  229   220   170 1
  230   221   169 1
  231   222   140 1
  232   223   167 1
  233   224   166 1
  234   225   165 1
  235   226   163 1
  236   227   161 1
  237   228   139 1
  238   229   139 1
  239   230   153 1
  240   231   152 1
  241   232   150 1
  242   233   149 1
  243   234   148 1
  244   235   162 1
  245   65    153 1
  246   65    174 1
@<TRIPOS>SUBSTRUCTURE
      1 CLA               1 ****               0 ****  **** 
      2 LUT             138 ****               0 ****  **** 
