@<TRIPOS>MOLECULE
Cpptraj generated mol2 file.
  235   246     2     0     0
SMALL
USER_CHARGES


@<TRIPOS>ATOM
      1 CAA        79.8207   57.2148   34.4637 a2         1 CLA     -0.055900
      2 CAB        80.0963   61.6437   43.2172 c8         1 CLA     -0.148500
      3 CAC        73.3051   57.2582   43.2629 a2         1 CLA     -0.012600
      4 CAD        75.7101   54.7113   35.8310 ck         1 CLA      0.398800
      5 NA         78.9594   57.7448   37.9403 ns         1 CLA     -0.225500
      6 CBA        81.0936   56.8838   33.6440 a2         1 CLA     -0.135000
      7 CBB        81.3206   61.7664   43.8034 c0         1 CLA     -0.395200
      8 CBC        73.1151   55.6763   43.1732 a3         1 CLA     -0.037700
      9 CBD        77.1710   55.2432   35.5673 a1         1 CLA     -0.053900
     10 NB         78.9192   59.4637   40.4136 nm         1 CLA     -0.295700
     11 OBD        75.0849   53.9102   35.1918 o2         1 CLA     -0.494600
     12 CGA        81.4033   55.4859   33.3192 c4         1 CLA      0.827000
     13 CGD        78.1217   54.0537   35.4070 c4         1 CLA      0.655300
     14 ND         76.0526   56.9295   38.5634 nm         1 CLA     -0.291600
     15 CED        78.6183   51.8740   36.1675 a3         1 CLA      0.005400
     16 CHA        77.4935   56.1796   36.7365 cs         1 CLA     -0.123800
     17 CHB        80.6590   59.4069   38.6386 aa         1 CLA     -0.291900
     18 CHC        77.6705   59.6586   42.4479 aa         1 CLA     -0.090400
     19 CHD        74.4608   56.8182   40.3100 aa         1 CLA     -0.052000
     20 CMA        82.2416   56.9028   37.3236 a3         1 CLA     -0.230700
     21 CMB        82.0289   61.5977   40.4513 a3         1 CLA     -0.180800
     22 CMC        75.5638   59.0515   44.7672 a3         1 CLA     -0.134000
     23 CMD        72.8923   54.9021   38.1895 a3         1 CLA     -0.141100
     24 C1         82.3269   53.4161   33.9900 a2         1 CLA      0.023000
     25 C1A        78.7090   56.9131   36.8506 ac         1 CLA     -0.015100
     26 C1B        80.1161   59.9222   39.8648 cr         1 CLA      0.054700
     27 C1C        76.5720   58.8201   42.3099 cn         1 CLA     -0.005600
     28 C1D        74.8789   56.4235   39.0151 ap         1 CLA     -0.047300
     29 O1A        80.9457   54.8914   32.3632 o2         1 CLA     -0.610800
     30 O1D        79.0307   53.9937   34.5572 o2         1 CLA     -0.558200
     31 C2         83.1286   52.8184   35.1730 c8         1 CLA     -0.325100
     32 C2A        79.9780   56.8209   35.9416 a1         1 CLA      0.098600
     33 C2B        80.7401   60.8092   40.7982 cb         1 CLA      0.088500
     34 C2C        75.5416   58.5195   43.3259 cb         1 CLA      0.053700
     35 C2D        74.2532   55.5546   38.0394 cb         1 CLA      0.058900
     36 O2A        82.2741   54.8777   34.2233 o1         1 CLA     -0.437200
     37 O2D        77.8135   53.0982   36.3334 o1         1 CLA     -0.357600
     38 C3         84.3391   52.1797   35.0621 c5         1 CLA      0.031200
     39 C3A        81.0429   57.6639   36.6809 a1         1 CLA      0.166800
     40 C3B        79.9080   60.9441   41.9214 cb         1 CLA      0.035000
     41 C3C        74.6266   57.7520   42.6996 cb         1 CLA     -0.089900
     42 C3D        75.3085   55.4212   37.0866 cb         1 CLA     -0.035900
     43 C4         84.3993   50.7028   35.1491 a3         1 CLA     -0.053300
     44 C4A        80.1516   58.3482   37.8146 ac         1 CLA      0.001800
     45 C4B        78.7792   59.9890   41.6532 cn         1 CLA     -0.020900
     46 C4C        75.1163   57.5550   41.2770 cr         1 CLA     -0.044400
     47 C4D        76.3426   56.2128   37.5246 c6         1 CLA     -0.046000
     48 C5         85.6489   53.0675   35.2932 a2         1 CLA     -0.070400
     49 C6         85.7697   53.2697   36.7776 a2         1 CLA      0.043900
     50 C7         86.9290   54.2255   37.1853 a2         1 CLA     -0.150000
     51 C8         86.6953   54.9711   38.5344 a1         1 CLA      0.064200
     52 C9         85.5660   56.0521   38.4763 a3         1 CLA     -0.259300
     53 C10        88.0783   55.5810   39.0210 a2         1 CLA     -0.071900
     54 C11        88.1645   56.2069   40.4571 a2         1 CLA      0.014500
     55 C12        87.9665   55.1704   41.5317 a2         1 CLA     -0.112100
     56 C13        88.3513   55.5352   43.0043 a1         1 CLA      0.089200
     57 C14        88.1712   54.2539   43.9770 a3         1 CLA     -0.239100
     58 C15        87.5306   56.7355   43.5498 a2         1 CLA     -0.102200
     59 C16        87.9302   57.1510   44.9636 a2         1 CLA      0.023900
     60 C17        87.0906   58.3472   45.4151 a2         1 CLA     -0.105700
     61 C18        85.5523   58.1512   45.6564 a1         1 CLA      0.206800
     62 C19        85.2125   57.2100   46.7188 a3         1 CLA     -0.280100
     63 C20        84.9780   59.5531   45.9987 a3         1 CLA     -0.280100
     64 NC         76.1991   58.3558   41.0676 nx         1 CLA     -0.309200
     65 MG         77.5038   58.2410   39.4617 mg         1 CLA      0.895000
     66 HMD3       72.8303   54.3965   39.1611 dc         1 CLA      0.064300
     67 HMD2       72.1267   55.6566   38.1817 dc         1 CLA      0.064300
     68 HMD1       72.7279   54.1783   37.3965 dc         1 CLA      0.064300
     69 HMC3       76.3178   59.7666   45.0488 dc         1 CLA      0.052100
     70 HMC2       74.6373   59.5401   44.8006 dc         1 CLA      0.052100
     71 HMC1       75.6095   58.1579   45.4472 dc         1 CLA      0.052100
     72 HMB3       82.1828   62.5752   40.9610 dc         1 CLA      0.063600
     73 HMB2       82.8868   60.9957   40.8337 dc         1 CLA      0.063600
     74 HMB1       82.1379   61.7024   39.3974 dc         1 CLA      0.063600
     75 HMA3       82.8563   57.6947   37.6471 dc         1 CLA      0.058300
     76 HMA2       82.0966   56.1404   38.1573 dc         1 CLA      0.058300
     77 HMA1       82.7831   56.4159   36.5339 dc         1 CLA      0.058300
     78 HED3       78.2973   51.1662   36.9421 dc         1 CLA      0.079300
     79 HED2       78.4663   51.5203   35.2182 dc         1 CLA      0.079300
     80 HED1       79.7090   52.0695   36.2507 dc         1 CLA      0.079300
     81 HBC3       74.1050   55.1498   43.0879 dc         1 CLA      0.016300
     82 HBC2       72.6369   55.3156   44.0667 dc         1 CLA      0.016300
     83 HBC1       72.6660   55.4337   42.2460 dc         1 CLA      0.016300
     84 HBB2       81.3325   62.3422   44.7253 da         1 CLA      0.183000
     85 HBB1       82.2116   61.4078   43.3775 da         1 CLA      0.183000
     86 HBA2       81.1127   57.3760   32.6649 dc         1 CLA      0.029400
     87 HBA1       81.9747   57.1766   34.1682 dc         1 CLA      0.029400
     88 HAC2       73.1643   57.5055   44.3459 dc         1 CLA      0.029300
     89 HAC1       72.4702   57.7203   42.6606 dc         1 CLA      0.029300
     90 HAA2       79.1221   56.5878   34.0120 dc         1 CLA      0.028700
     91 HAA1       79.4730   58.2467   34.3726 dc         1 CLA      0.028700
     92 H203       85.3351   59.9180   46.9621 dc         1 CLA      0.065600
     93 H202       85.2561   60.3309   45.3271 dc         1 CLA      0.065600
     94 H201       83.9151   59.6263   45.9734 dc         1 CLA      0.065600
     95 H193       85.3559   57.6144   47.7439 dc         1 CLA      0.065600
     96 H192       84.2026   56.9445   46.5189 dc         1 CLA      0.065600
     97 H191       85.8246   56.3182   46.5789 dc         1 CLA      0.065600
     98 H172       87.5340   58.8980   46.2376 dc         1 CLA      0.027600
     99 H171       87.2037   59.1009   44.6246 dc         1 CLA      0.027600
    100 H162       87.9174   56.4329   45.7568 dc         1 CLA      0.002900
    101 H161       88.9665   57.5275   44.9448 dc         1 CLA      0.002900
    102 H152       87.6832   57.4803   42.8429 dc         1 CLA      0.029100
    103 H151       86.4828   56.4579   43.5183 dc         1 CLA      0.029100
    104 H143       87.1954   53.8723   44.0027 dc         1 CLA      0.063600
    105 H142       88.7344   53.3883   43.6523 dc         1 CLA      0.063600
    106 H141       88.5721   54.4091   44.9505 dc         1 CLA      0.063600
    107 H122       86.9729   54.8287   41.5138 dc         1 CLA      0.032500
    108 H121       88.6595   54.3770   41.2754 dc         1 CLA      0.032500
    109 H112       89.0885   56.7523   40.5573 dc         1 CLA      0.006600
    110 H111       87.2802   56.8534   40.6292 dc         1 CLA      0.006600
    111 H102       88.8435   54.7638   38.9750 dc         1 CLA      0.024100
    112 H101       88.3437   56.3760   38.3219 dc         1 CLA      0.024100
    113 HHD        73.4512   56.4117   40.6021 da         1 CLA      0.174300
    114 HHC        77.8257   60.0649   43.4299 da         1 CLA      0.136800
    115 HHB        81.6558   59.6700   38.2769 da         1 CLA      0.138300
    116 HBD        77.2161   55.8056   34.6709 dc         1 CLA      0.107700
    117 HAB        79.2970   62.1875   43.7360 da         1 CLA      0.155200
    118 H93        85.9375   56.8016   37.7320 dc         1 CLA      0.069500
    119 H92        84.5436   55.7262   38.2321 dc         1 CLA      0.069500
    120 H91        85.5108   56.5216   39.4385 dc         1 CLA      0.069500
    121 H8         86.3446   54.3366   39.3810 dc         1 CLA      0.029300
    122 H72        87.8348   53.5938   37.1776 dc         1 CLA      0.044400
    123 H71        87.0729   55.0286   36.4396 dc         1 CLA      0.044400
    124 H62        84.8147   53.6839   37.1185 dc         1 CLA      0.015600
    125 H61        85.9971   52.2254   37.0351 dc         1 CLA      0.015600
    126 H52        86.5587   52.6065   34.9142 dc         1 CLA      0.033200
    127 H51        85.6358   54.0394   34.7003 dc         1 CLA      0.033200
    128 H43        84.7499   50.2285   34.2360 dc         1 CLA      0.037000
    129 H42        85.0724   50.5057   35.9673 dc         1 CLA      0.037000
    130 H41        83.4451   50.4183   35.5639 dc         1 CLA      0.037000
    131 H3A        81.4234   58.4702   35.9919 dc         1 CLA      0.041100
    132 H2A        80.2735   55.8089   36.0179 dc         1 CLA      0.083100
    133 H2         82.6727   53.0298   36.1235 da         1 CLA      0.180900
    134 H18        85.1920   57.7310   44.7416 dc         1 CLA     -0.003900
    135 H13        89.3476   55.9085   42.8725 dc         1 CLA      0.019700
    136 H12        81.3773   52.8976   33.9392 dc         1 CLA      0.120400
    137 H11        82.9145   53.1757   33.1167 dc         1 CLA      0.120400
    138 C1         70.0810   61.2455   50.2740 Z1         2 LUT      0.509236
    139 C2         68.6589   60.9685   50.8626 Z2         2 LUT     -0.434695
    140 C3         67.7885   62.2558   51.2115 Z3         2 LUT      0.437453
    141 O3         67.9842   62.8873   52.4393 S1         2 LUT     -0.547129
    142 C4         67.9055   63.3461   50.1728 Z4         2 LUT     -0.468603
    143 C5         68.8270   63.0455   48.9967 Z5         2 LUT      0.279246
    144 C6         69.8369   62.1650   49.0239 Z6         2 LUT     -0.305473
    145 C7         70.5427   61.6375   47.7696 Z7         2 LUT      0.069402
    146 C8         71.4058   62.2568   46.9828 Z8         2 LUT     -0.191631
    147 C9         71.8343   61.8315   45.6194 Z9         2 LUT      0.196698
    148 C10        72.7203   62.5819   44.9534 Y1         2 LUT     -0.208611
    149 C11        73.3360   62.3572   43.6380 Y2         2 LUT      0.030784
    150 C12        74.4579   63.0017   43.3509 Y3         2 LUT     -0.220316
    151 C13        75.4088   62.8116   42.2244 Y4         2 LUT      0.215937
    152 C14        76.5901   63.5323   42.3130 Y5         2 LUT     -0.185793
    153 C15        77.7822   63.5232   41.4613 Y6         2 LUT     -0.057835
    154 C16        70.8063   59.8356   49.8361 Y7         2 LUT     -0.405615
    155 C17        70.8712   61.9014   51.3979 Y7         2 LUT     -0.405615
    156 C18        68.3546   63.6892   47.7855 Y9         2 LUT     -0.369639
    157 C19        71.1757   60.6073   44.9373 W1         2 LUT     -0.333362
    158 C20        75.0487   61.8438   41.1330 W2         2 LUT     -0.323439
    159 C21        88.7471   64.6121   34.9283 Z1         2 LUT      0.406104
    160 C22        89.4203   63.8091   33.8557 Z2         2 LUT     -0.404965
    161 C23        89.5883   64.5479   32.5395 Z3         2 LUT      0.391255
    162 O23        89.9026   63.5313   31.5634 S1         2 LUT     -0.528210
    163 C24        88.3923   65.3646   32.0846 W6         2 LUT     -0.258361
    164 C25        87.3635   65.6940   32.8855 Z5         2 LUT      0.133546
    165 C26        87.3206   65.0995   34.3353 W8         2 LUT     -0.147008
    166 C27        86.4929   65.9880   35.3126 Z7         2 LUT      0.023843
    167 C28        85.3549   65.6580   35.9153 Z8         2 LUT     -0.216987
    168 C29        84.7895   66.1970   37.1561 Z9         2 LUT      0.206524
    169 C30        83.7144   65.4832   37.6211 Y1         2 LUT     -0.215556
    170 C31        83.0000   65.6828   38.8880 Y2         2 LUT      0.025142
    171 C32        81.8165   65.0284   39.2564 Y3         2 LUT     -0.212209
    172 C33        81.0814   65.0706   40.4903 Y4         2 LUT      0.240937
    173 C34        79.9026   64.3474   40.6630 Y5         2 LUT     -0.218862
    174 C35        78.8898   64.2797   41.6919 Y6         2 LUT     -0.023547
    175 C36        89.6755   65.8062   35.3852 Y7         2 LUT     -0.393485
    176 C37        88.4746   63.5809   35.9807 Y7         2 LUT     -0.393485
    177 C38        86.1920   66.4092   32.3555 Y9         2 LUT     -0.387526
    178 C39        85.5442   67.2801   37.8983 W1         2 LUT     -0.322618
    179 C40        81.3102   66.3551   41.2574 W2         2 LUT     -0.358472
    180 H403       80.6048   66.5392   42.1048 R7         2 LUT      0.097720
    181 H402       82.3230   66.2940   41.6399 R7         2 LUT      0.097720
    182 H401       81.1094   67.1399   40.5313 R7         2 LUT      0.097720
    183 H393       85.7872   66.7656   38.8442 R4         2 LUT      0.082505
    184 H392       86.4148   67.7624   37.4335 R4         2 LUT      0.082505
    185 H391       84.9538   68.1555   38.2004 R4         2 LUT      0.082505
    186 H383       85.9489   67.4132   32.7992 R1         2 LUT      0.104030
    187 H382       86.3819   66.5799   31.3363 R1         2 LUT      0.104030
    188 H381       85.3022   65.7759   32.2126 R1         2 LUT      0.104030
    189 H373       89.3297   62.8936   36.0742 T4         2 LUT      0.089537
    190 H372       88.1996   64.0417   36.9184 T4         2 LUT      0.089537
    191 H371       87.6918   62.8826   35.7739 T4         2 LUT      0.089537
    192 H363       90.1440   66.4033   34.5963 T4         2 LUT      0.089537
    193 H362       89.1120   66.5072   36.0071 T4         2 LUT      0.089537
    194 H361       90.3576   65.3881   36.0799 T4         2 LUT      0.089537
    195 H222       90.4525   63.4631   34.1376 U2         2 LUT      0.127376
    196 H221       88.7774   62.9821   33.5120 U2         2 LUT      0.127376
    197 H203       74.2374   62.1208   40.4928 R7         2 LUT      0.087068
    198 H202       75.9327   61.6447   40.5430 R7         2 LUT      0.087068
    199 H201       74.8114   60.9114   41.4984 R7         2 LUT      0.087068
    200 H193       71.7487   60.0746   44.1949 R4         2 LUT      0.089716
    201 H192       70.7303   59.8859   45.6454 R4         2 LUT      0.089716
    202 H191       70.3856   60.9017   44.3364 R4         2 LUT      0.089716
    203 H183       68.8161   63.5246   46.8311 R1         2 LUT      0.094572
    204 H182       67.3623   63.3877   47.5360 R1         2 LUT      0.094572
    205 H181       68.3173   64.7477   48.0172 R1         2 LUT      0.094572
    206 H173       70.6652   61.3591   52.3432 T4         2 LUT      0.093752
    207 H172       71.8715   61.7059   51.2398 T4         2 LUT      0.093752
    208 H171       70.6953   62.9776   51.5912 T4         2 LUT      0.093752
    209 H163       71.7764   60.0126   49.4476 T4         2 LUT      0.093752
    210 H162       70.8760   59.1193   50.6969 T4         2 LUT      0.093752
    211 H161       70.3077   59.3080   48.9928 T4         2 LUT      0.093752
    212 HO3        67.9893   62.2350   53.1608 Q1         2 LUT      0.300121
    213 H8         71.7226   63.2559   47.2800 U7         2 LUT      0.080784
    214 H7         70.0413   60.7168   47.4439 U6         2 LUT      0.042190
    215 H42        66.9341   63.6467   49.8345 U5         2 LUT      0.145166
    216 H41        68.2830   64.3128   50.6098 U5         2 LUT      0.145166
    217 H35        78.8666   64.9018   42.6015 T3         2 LUT      0.077919
    218 H34        79.6106   63.8435   39.7880 T2         2 LUT      0.073626
    219 H32        81.3732   64.4187   38.5076 T1         2 LUT      0.092510
    220 H31        83.4596   66.3430   39.5569 U9         2 LUT      0.070048
    221 H30        83.3068   64.7590   36.9521 U8         2 LUT      0.085442
    222 H3         66.7546   61.8722   51.1647 U3         2 LUT     -0.031596
    223 H28        84.8862   64.7481   35.4997 U7         2 LUT      0.084728
    224 H27        87.0553   66.8117   35.7169 U6         2 LUT      0.087291
    225 H26        86.7234   64.2157   34.1472 Q6         2 LUT      0.075325
    226 H24        88.5748   65.6274   31.0379 Q5         2 LUT      0.094482
    227 H23        90.3954   65.3063   32.6398 U3         2 LUT     -0.024869
    228 H22        68.0583   60.2004   50.2674 U2         2 LUT      0.127376
    229 H21        68.6917   60.3716   51.8256 U2         2 LUT      0.127376
    230 H15        77.7788   62.9520   40.4818 T3         2 LUT      0.093200
    231 H14        76.6962   64.2287   43.1161 T2         2 LUT      0.068865
    232 H12        74.7327   63.7151   44.1549 T1         2 LUT      0.095507
    233 H11        73.0466   61.5630   42.9167 U9         2 LUT      0.068930
    234 H10        73.1131   63.4883   45.4750 U8         2 LUT      0.083911
    235 H1         90.3658   63.9292   30.8530 Q1         2 LUT      0.297311
@<TRIPOS>BOND
    1     6     1 1
    2     7     2 1
    3     8     3 1
    4     9     4 1
    5    11     4 1
    6    12     6 1
    7    13     9 1
    8    16     9 1
    9    25     5 1
   10    25    16 1
   11    26    10 1
   12    26    17 1
   13    27    18 1
   14    28    14 1
   15    28    19 1
   16    29    12 1
   17    30    13 1
   18    31    24 1
   19    32     1 1
   20    32    25 1
   21    33    21 1
   22    33    26 1
   23    34    22 1
   24    34    27 1
   25    35    23 1
   26    35    28 1
   27    36    12 1
   28    36    24 1
   29    37    13 1
   30    37    15 1
   31    38    31 1
   32    39    20 1
   33    39    32 1
   34    40     2 1
   35    40    33 1
   36    41     3 1
   37    41    34 1
   38    42     4 1
   39    42    35 1
   40    43    38 1
   41    44     5 1
   42    44    17 1
   43    44    39 1
   44    45    10 1
   45    45    18 1
   46    45    40 1
   47    46    19 1
   48    46    41 1
   49    47    14 1
   50    47    16 1
   51    47    42 1
   52    48    38 1
   53    49    48 1
   54    50    49 1
   55    51    50 1
   56    52    51 1
   57    53    51 1
   58    54    53 1
   59    55    54 1
   60    56    55 1
   61    57    56 1
   62    58    56 1
   63    59    58 1
   64    60    59 1
   65    61    60 1
   66    62    61 1
   67    63    61 1
   68    64    27 1
   69    64    46 1
   70    65     5 1
   71    65    10 1
   72    65    64 1
   73    65    14 1
   74    66    23 1
   75    67    23 1
   76    68    23 1
   77    69    22 1
   78    70    22 1
   79    71    22 1
   80    72    21 1
   81    73    21 1
   82    74    21 1
   83    75    20 1
   84    76    20 1
   85    77    20 1
   86    78    15 1
   87    79    15 1
   88    80    15 1
   89    81     8 1
   90    82     8 1
   91    83     8 1
   92    84     7 1
   93    85     7 1
   94    86     6 1
   95    87     6 1
   96    88     3 1
   97    89     3 1
   98    90     1 1
   99    91     1 1
  100    92    63 1
  101    93    63 1
  102    94    63 1
  103    95    62 1
  104    96    62 1
  105    97    62 1
  106    98    60 1
  107    99    60 1
  108   100    59 1
  109   101    59 1
  110   102    58 1
  111   103    58 1
  112   104    57 1
  113   105    57 1
  114   106    57 1
  115   107    55 1
  116   108    55 1
  117   109    54 1
  118   110    54 1
  119   111    53 1
  120   112    53 1
  121   113    19 1
  122   114    18 1
  123   115    17 1
  124   116     9 1
  125   117     2 1
  126   118    52 1
  127   119    52 1
  128   120    52 1
  129   121    51 1
  130   122    50 1
  131   123    50 1
  132   124    49 1
  133   125    49 1
  134   126    48 1
  135   127    48 1
  136   128    43 1
  137   129    43 1
  138   130    43 1
  139   131    39 1
  140   132    32 1
  141   133    31 1
  142   134    61 1
  143   135    56 1
  144   136    24 1
  145   137    24 1
  146   139   138 1
  147   140   139 1
  148   141   140 1
  149   142   140 1
  150   143   142 1
  151   144   138 1
  152   144   143 1
  153   145   144 1
  154   146   145 1
  155   147   146 1
  156   148   147 1
  157   149   148 1
  158   150   149 1
  159   151   150 1
  160   152   151 1
  161   153   152 1
  162   154   138 1
  163   155   138 1
  164   156   143 1
  165   157   147 1
  166   158   151 1
  167   160   159 1
  168   161   160 1
  169   162   161 1
  170   163   161 1
  171   164   163 1
  172   165   159 1
  173   165   164 1
  174   166   165 1
  175   167   166 1
  176   168   167 1
  177   169   168 1
  178   170   169 1
  179   171   170 1
  180   172   171 1
  181   173   172 1
  182   174   153 1
  183   174   173 1
  184   175   159 1
  185   176   159 1
  186   177   164 1
  187   178   168 1
  188   179   172 1
  189   180   179 1
  190   181   179 1
  191   182   179 1
  192   183   178 1
  193   184   178 1
  194   185   178 1
  195   186   177 1
  196   187   177 1
  197   188   177 1
  198   189   176 1
  199   190   176 1
  200   191   176 1
  201   192   175 1
  202   193   175 1
  203   194   175 1
  204   195   160 1
  205   196   160 1
  206   197   158 1
  207   198   158 1
  208   199   158 1
  209   200   157 1
  210   201   157 1
  211   202   157 1
  212   203   156 1
  213   204   156 1
  214   205   156 1
  215   206   155 1
  216   207   155 1
  217   208   155 1
  218   209   154 1
  219   210   154 1
  220   211   154 1
  221   212   141 1
  222   213   146 1
  223   214   145 1
  224   215   142 1
  225   216   142 1
  226   217   174 1
  227   218   173 1
  228   219   171 1
  229   220   170 1
  230   221   169 1
  231   222   140 1
  232   223   167 1
  233   224   166 1
  234   225   165 1
  235   226   163 1
  236   227   161 1
  237   228   139 1
  238   229   139 1
  239   230   153 1
  240   231   152 1
  241   232   150 1
  242   233   149 1
  243   234   148 1
  244   235   162 1
  245   65    153 1
  246   65    174 1
@<TRIPOS>SUBSTRUCTURE
      1 CLA               1 ****               0 ****  **** 
      2 LUT             138 ****               0 ****  **** 
