@<TRIPOS>MOLECULE
Cpptraj generated mol2 file.
  235   246     2     0     0
SMALL
USER_CHARGES


@<TRIPOS>ATOM
      1 CAA        79.7080   58.3385   35.0362 a2         1 CLA     -0.055900
      2 CAB        79.9002   62.1059   44.1455 c8         1 CLA     -0.148500
      3 CAC        72.9846   58.2981   43.5920 a2         1 CLA     -0.012600
      4 CAD        75.5809   55.8267   36.2458 ck         1 CLA      0.398800
      5 NA         78.7667   58.6394   38.4404 ns         1 CLA     -0.225500
      6 CBA        80.9912   58.1905   34.2665 a2         1 CLA     -0.135000
      7 CBB        81.1267   62.4461   44.6494 c0         1 CLA     -0.395200
      8 CBC        72.9225   56.7667   43.6707 a3         1 CLA     -0.037700
      9 CBD        77.0083   56.1737   35.9931 a1         1 CLA     -0.053900
     10 NB         78.6923   60.1790   41.2057 nm         1 CLA     -0.295700
     11 OBD        75.0133   55.1335   35.4371 o2         1 CLA     -0.494600
     12 CGA        81.4359   56.7618   33.8376 c4         1 CLA      0.827000
     13 CGD        77.8863   54.9567   35.9614 c4         1 CLA      0.655300
     14 ND         75.9347   57.8663   39.0756 nm         1 CLA     -0.291600
     15 CED        78.2896   52.8091   36.8250 a3         1 CLA      0.005400
     16 CHA        77.3632   57.1588   37.2103 cs         1 CLA     -0.123800
     17 CHB        80.6314   59.8998   39.6041 aa         1 CLA     -0.291900
     18 CHC        77.3683   60.7955   43.1500 aa         1 CLA     -0.090400
     19 CHD        74.1714   57.8684   40.7316 aa         1 CLA     -0.052000
     20 CMA        82.0834   57.6630   37.9018 a3         1 CLA     -0.230700
     21 CMB        82.0794   61.8024   41.5578 a3         1 CLA     -0.180800
     22 CMC        74.9477   60.2969   45.1700 a3         1 CLA     -0.134000
     23 CMD        72.7812   56.0278   38.5506 a3         1 CLA     -0.141100
     24 C1         82.5133   54.7727   34.7388 a2         1 CLA      0.023000
     25 C1A        78.5668   57.9042   37.3453 ac         1 CLA     -0.015100
     26 C1B        80.0114   60.4398   40.8135 cr         1 CLA      0.054700
     27 C1C        76.2146   59.9507   42.8845 cn         1 CLA     -0.005600
     28 C1D        74.7067   57.4585   39.5362 ap         1 CLA     -0.047300
     29 O1A        81.0473   56.1348   32.8324 o2         1 CLA     -0.610800
     30 O1D        78.8795   54.8332   35.2067 o2         1 CLA     -0.558200
     31 C2         83.3797   54.4912   35.9552 c8         1 CLA     -0.325100
     32 C2A        79.8361   57.8278   36.4859 a1         1 CLA      0.098600
     33 C2B        80.6950   61.2846   41.7579 cb         1 CLA      0.088500
     34 C2C        75.1433   59.6416   43.7996 cb         1 CLA      0.053700
     35 C2D        74.2011   56.5781   38.4805 cb         1 CLA      0.058900
     36 O2A        82.1489   56.1831   34.8315 o1         1 CLA     -0.437200
     37 O2D        77.4028   53.9638   36.8024 o1         1 CLA     -0.357600
     38 C3         84.4362   53.6795   35.9320 c5         1 CLA      0.031200
     39 C3A        80.9705   58.6129   37.4297 a1         1 CLA      0.166800
     40 C3B        79.7375   61.5538   42.7755 cb         1 CLA      0.035000
     41 C3C        74.2038   58.9417   43.0587 cb         1 CLA     -0.089900
     42 C3D        75.1521   56.4470   37.5368 cb         1 CLA     -0.035900
     43 C4         84.3393   52.1929   35.8561 a3         1 CLA     -0.053300
     44 C4A        80.0744   59.0168   38.5693 ac         1 CLA      0.001800
     45 C4B        78.5135   60.8320   42.3987 cn         1 CLA     -0.020900
     46 C4C        74.7258   58.7343   41.7646 cr         1 CLA     -0.044400
     47 C4D        76.1778   57.2336   37.9845 c6         1 CLA     -0.046000
     48 C5         85.8010   54.2688   35.6907 a2         1 CLA     -0.070400
     49 C6         86.1781   55.4661   36.5703 a2         1 CLA      0.043900
     50 C7         86.5954   55.0355   38.0287 a2         1 CLA     -0.150000
     51 C8         86.6432   56.2157   39.0111 a1         1 CLA      0.064200
     52 C9         87.4337   57.3829   38.4854 a3         1 CLA     -0.259300
     53 C10        87.0583   55.7381   40.4436 a2         1 CLA     -0.071900
     54 C11        87.0804   56.8942   41.5151 a2         1 CLA      0.014500
     55 C12        87.2596   56.3546   42.9270 a2         1 CLA     -0.112100
     56 C13        86.9131   57.2858   44.0939 a1         1 CLA      0.089200
     57 C14        87.4533   58.7124   43.7839 a3         1 CLA     -0.239100
     58 C15        87.4101   56.6524   45.4575 a2         1 CLA     -0.102200
     59 C16        86.7542   57.3127   46.7504 a2         1 CLA      0.023900
     60 C17        87.2016   56.5740   47.9455 a2         1 CLA     -0.105700
     61 C18        86.8335   57.2106   49.3498 a1         1 CLA      0.206800
     62 C19        85.3163   56.9401   49.6223 a3         1 CLA     -0.280100
     63 C20        87.5388   56.2429   50.3464 a3         1 CLA     -0.280100
     64 NC         75.9717   59.2613   41.7161 nx         1 CLA     -0.309200
     65 MG         77.2948   59.1453   39.9830 mg         1 CLA      0.895000
     66 HMD3       72.7411   55.7047   39.6374 dc         1 CLA      0.064300
     67 HMD2       72.1380   56.7933   38.2494 dc         1 CLA      0.064300
     68 HMD1       72.8839   55.1666   37.8791 dc         1 CLA      0.064300
     69 HMC3       75.3574   59.7055   45.9426 dc         1 CLA      0.052100
     70 HMC2       75.2520   61.3424   45.1894 dc         1 CLA      0.052100
     71 HMC1       73.8732   60.2697   45.4207 dc         1 CLA      0.052100
     72 HMB3       82.2114   61.9000   40.5187 dc         1 CLA      0.063600
     73 HMB2       82.2132   62.7863   41.9738 dc         1 CLA      0.063600
     74 HMB1       82.8245   61.1273   41.8934 dc         1 CLA      0.063600
     75 HMA3       82.6922   57.2017   37.1116 dc         1 CLA      0.058300
     76 HMA2       82.6910   58.2027   38.6015 dc         1 CLA      0.058300
     77 HMA1       81.6029   56.8048   38.4076 dc         1 CLA      0.058300
     78 HED3       79.3282   53.1482   36.9789 dc         1 CLA      0.079300
     79 HED2       78.0366   52.1905   37.5994 dc         1 CLA      0.079300
     80 HED1       78.2516   52.3735   35.8224 dc         1 CLA      0.079300
     81 HBC3       72.1979   56.4398   44.4309 dc         1 CLA      0.016300
     82 HBC2       72.8176   56.1744   42.7591 dc         1 CLA      0.016300
     83 HBC1       73.9415   56.5840   44.0617 dc         1 CLA      0.016300
     84 HBB2       81.2139   62.6737   45.6843 da         1 CLA      0.183000
     85 HBB1       82.1058   62.2777   44.1300 da         1 CLA      0.183000
     86 HBA2       80.8944   58.7346   33.4151 dc         1 CLA      0.029400
     87 HBA1       81.8652   58.6638   34.7067 dc         1 CLA      0.029400
     88 HAC2       72.8357   58.5585   44.6083 dc         1 CLA      0.029300
     89 HAC1       72.0985   58.5052   43.0113 dc         1 CLA      0.029300
     90 HAA2       78.9503   57.7166   34.6027 dc         1 CLA      0.028700
     91 HAA1       79.4194   59.3463   35.0024 dc         1 CLA      0.028700
     92 H203       88.5672   56.0363   50.0466 dc         1 CLA      0.065600
     93 H202       87.4809   56.7653   51.2864 dc         1 CLA      0.065600
     94 H201       87.1064   55.2462   50.4405 dc         1 CLA      0.065600
     95 H193       84.6672   57.4179   48.9027 dc         1 CLA      0.065600
     96 H192       85.1234   55.8536   49.7800 dc         1 CLA      0.065600
     97 H191       85.1506   57.4888   50.5351 dc         1 CLA      0.065600
     98 H172       86.9856   55.5162   47.9070 dc         1 CLA      0.027600
     99 H171       88.3345   56.6385   47.8095 dc         1 CLA      0.027600
    100 H162       87.2243   58.3050   46.8358 dc         1 CLA      0.002900
    101 H161       85.6716   57.3904   46.6266 dc         1 CLA      0.002900
    102 H152       87.1566   55.5993   45.3782 dc         1 CLA      0.029100
    103 H151       88.5024   56.6087   45.5315 dc         1 CLA      0.029100
    104 H143       86.9567   59.1559   42.9110 dc         1 CLA      0.063600
    105 H142       87.2336   59.3167   44.6967 dc         1 CLA      0.063600
    106 H141       88.5495   58.6724   43.5879 dc         1 CLA      0.063600
    107 H122       86.6185   55.4103   43.0270 dc         1 CLA      0.032500
    108 H121       88.3437   56.1712   43.0589 dc         1 CLA      0.032500
    109 H112       88.0106   57.3749   41.3136 dc         1 CLA      0.006600
    110 H111       86.2094   57.5267   41.3428 dc         1 CLA      0.006600
    111 H102       86.2677   55.0667   40.6860 dc         1 CLA      0.024100
    112 H101       88.0160   55.1683   40.3931 dc         1 CLA      0.024100
    113 HHD        73.1768   57.4857   40.9472 da         1 CLA      0.174300
    114 HHC        77.3668   61.1515   44.1474 da         1 CLA      0.136800
    115 HHB        81.6701   60.2292   39.4293 da         1 CLA      0.138300
    116 HBD        77.0139   56.6389   35.0875 dc         1 CLA      0.107700
    117 HAB        79.0048   62.1537   44.7485 da         1 CLA      0.155200
    118 H93        87.0340   57.7554   37.5252 dc         1 CLA      0.069500
    119 H92        87.4781   58.2553   39.1902 dc         1 CLA      0.069500
    120 H91        88.4525   56.9848   38.2948 dc         1 CLA      0.069500
    121 H8         85.6166   56.6080   38.9743 dc         1 CLA      0.029300
    122 H72        85.8075   54.3147   38.2669 dc         1 CLA      0.044400
    123 H71        87.5245   54.5546   37.9022 dc         1 CLA      0.044400
    124 H62        86.9749   56.1187   36.1413 dc         1 CLA      0.015600
    125 H61        85.2874   56.1877   36.4233 dc         1 CLA      0.015600
    126 H52        86.5902   53.6052   35.9677 dc         1 CLA      0.033200
    127 H51        85.8893   54.6061   34.6653 dc         1 CLA      0.033200
    128 H43        84.9271   51.8268   34.9918 dc         1 CLA      0.037000
    129 H42        84.5164   51.7032   36.7894 dc         1 CLA      0.037000
    130 H41        83.3663   51.9504   35.5045 dc         1 CLA      0.037000
    131 H3A        81.4098   59.4409   36.8596 dc         1 CLA      0.041100
    132 H2A        79.9041   56.7154   36.4077 dc         1 CLA      0.083100
    133 H2         83.0298   54.8855   36.9353 da         1 CLA      0.180900
    134 H18        87.2510   58.1882   49.4340 dc         1 CLA     -0.003900
    135 H13        85.8158   57.2709   44.0863 dc         1 CLA      0.019700
    136 H12        81.6142   54.0796   34.7225 dc         1 CLA      0.120400
    137 H11        83.1308   54.5905   33.8773 dc         1 CLA      0.120400
    138 C1         69.3374   61.1910   50.1874 Z1         2 LUT      0.509236
    139 C2         68.8801   61.9381   51.4650 Z2         2 LUT     -0.434695
    140 C3         67.5021   62.4769   51.3560 Z3         2 LUT      0.437453
    141 O3         67.2427   63.1340   52.5952 S1         2 LUT     -0.547129
    142 C4         67.4298   63.3923   50.2059 Z4         2 LUT     -0.468603
    143 C5         67.9199   62.8183   48.9038 Z5         2 LUT      0.279246
    144 C6         68.7232   61.7243   48.8713 Z6         2 LUT     -0.305473
    145 C7         69.4829   61.3833   47.6049 Z7         2 LUT      0.069402
    146 C8         70.4112   62.1570   46.9877 Z8         2 LUT     -0.191631
    147 C9         71.0773   61.8573   45.7088 Z9         2 LUT      0.196698
    148 C10        72.0663   62.6630   45.1793 Y1         2 LUT     -0.208611
    149 C11        72.7028   62.5568   43.8693 Y2         2 LUT      0.030784
    150 C12        73.8332   63.2436   43.5334 Y3         2 LUT     -0.220316
    151 C13        74.6970   63.1475   42.2820 Y4         2 LUT      0.215937
    152 C14        75.9249   63.7218   42.4957 Y5         2 LUT     -0.185793
    153 C15        77.0377   63.6813   41.6379 Y6         2 LUT     -0.057835
    154 C16        68.7911   59.7549   50.5199 Y7         2 LUT     -0.405615
    155 C17        70.8105   60.9780   50.1859 Y7         2 LUT     -0.405615
    156 C18        67.7262   63.7853   47.7810 Y9         2 LUT     -0.369639
    157 C19        70.3865   60.7683   44.9240 W1         2 LUT     -0.333362
    158 C20        74.2308   62.2363   41.1900 W2         2 LUT     -0.323439
    159 C21        88.5102   65.1649   35.6502 Z1         2 LUT      0.406104
    160 C22        89.0515   64.5714   34.2950 Z2         2 LUT     -0.404965
    161 C23        89.1005   65.4133   33.0866 Z3         2 LUT      0.391255
    162 O23        89.5132   64.5518   32.0583 S1         2 LUT     -0.528210
    163 C24        87.9060   66.1931   32.9644 W6         2 LUT     -0.258361
    164 C25        86.9504   66.3648   33.9069 Z5         2 LUT      0.133546
    165 C26        87.0522   65.6385   35.3466 W8         2 LUT     -0.147008
    166 C27        86.2788   66.3608   36.4604 Z7         2 LUT      0.023843
    167 C28        85.0903   65.9308   37.0429 Z8         2 LUT     -0.216987
    168 C29        84.4958   66.2186   38.3189 Z9         2 LUT      0.206524
    169 C30        83.3706   65.4935   38.6039 Y1         2 LUT     -0.215556
    170 C31        82.5042   65.5311   39.7361 Y2         2 LUT      0.025142
    171 C32        81.2592   65.0292   39.9444 Y3         2 LUT     -0.212209
    172 C33        80.4578   65.1621   41.1196 Y4         2 LUT      0.240937
    173 C34        79.2225   64.4780   41.0339 Y5         2 LUT     -0.218862
    174 C35        78.1966   64.2887   41.9885 Y6         2 LUT     -0.023547
    175 C36        89.4309   66.2574   36.1764 Y7         2 LUT     -0.393485
    176 C37        88.5945   64.1029   36.7749 Y7         2 LUT     -0.393485
    177 C38        85.6511   67.1252   33.5974 Y9         2 LUT     -0.387526
    178 C39        85.0996   67.2501   39.2134 W1         2 LUT     -0.322618
    179 C40        81.1104   65.6192   42.4049 W2         2 LUT     -0.358472
    180 H403       81.2856   66.6873   42.3993 R7         2 LUT      0.097720
    181 H402       80.5192   65.3829   43.2495 R7         2 LUT      0.097720
    182 H401       82.0405   65.0275   42.6215 R7         2 LUT      0.097720
    183 H393       84.7173   67.3345   40.2277 R4         2 LUT      0.082505
    184 H392       86.1779   67.2652   39.2725 R4         2 LUT      0.082505
    185 H391       84.9691   68.2426   38.8153 R4         2 LUT      0.082505
    186 H383       85.3169   67.6853   34.4750 R1         2 LUT      0.104030
    187 H382       85.7748   67.6889   32.6527 R1         2 LUT      0.104030
    188 H381       84.8450   66.3977   33.4251 R1         2 LUT      0.104030
    189 H373       89.6316   63.7242   37.0514 T4         2 LUT      0.089537
    190 H372       88.0945   64.4116   37.6553 T4         2 LUT      0.089537
    191 H371       88.0400   63.1981   36.5617 T4         2 LUT      0.089537
    192 H363       90.3960   65.7997   36.3181 T4         2 LUT      0.089537
    193 H362       89.4504   66.8923   35.2671 T4         2 LUT      0.089537
    194 H361       88.9749   66.8175   37.0786 T4         2 LUT      0.089537
    195 H222       90.1267   64.2948   34.5158 U2         2 LUT      0.127376
    196 H221       88.4940   63.6780   34.0154 U2         2 LUT      0.127376
    197 H203       74.8834   62.4354   40.4093 R7         2 LUT      0.087068
    198 H202       74.2001   61.1907   41.5144 R7         2 LUT      0.087068
    199 H201       73.2044   62.4145   40.9891 R7         2 LUT      0.087068
    200 H193       69.3101   60.6796   44.9039 R4         2 LUT      0.089716
    201 H192       70.5518   60.7983   43.8399 R4         2 LUT      0.089716
    202 H191       70.7960   59.7766   45.1708 R4         2 LUT      0.089716
    203 H183       68.5904   64.4486   47.9268 R1         2 LUT      0.094572
    204 H182       67.7129   63.3700   46.7975 R1         2 LUT      0.094572
    205 H181       66.7788   64.3062   47.8606 R1         2 LUT      0.094572
    206 H173       71.2855   61.9351   50.1321 T4         2 LUT      0.093752
    207 H172       71.2334   60.5855   51.1400 T4         2 LUT      0.093752
    208 H171       71.2084   60.3990   49.2757 T4         2 LUT      0.093752
    209 H163       69.2960   59.2034   51.3009 T4         2 LUT      0.093752
    210 H162       67.7517   59.6779   50.8622 T4         2 LUT      0.093752
    211 H161       68.9034   59.0752   49.6806 T4         2 LUT      0.093752
    212 HO3        66.9125   62.5184   53.2934 Q1         2 LUT      0.300121
    213 H8         70.7077   63.1122   47.3920 U7         2 LUT      0.080784
    214 H7         69.3527   60.4596   47.1314 U6         2 LUT      0.042190
    215 H42        66.3383   63.6228   50.0425 U5         2 LUT      0.145166
    216 H41        67.9437   64.3727   50.4011 U5         2 LUT      0.145166
    217 H35        78.4547   64.8394   42.8700 T3         2 LUT      0.077919
    218 H34        79.0374   64.1407   40.0353 T2         2 LUT      0.073626
    219 H32        80.8382   64.5670   39.0648 T1         2 LUT      0.092510
    220 H31        82.9102   66.0791   40.5422 U9         2 LUT      0.070048
    221 H30        83.0322   64.8431   37.8000 U8         2 LUT      0.085442
    222 H3         66.7608   61.6747   51.1376 U3         2 LUT     -0.031596
    223 H28        84.4050   65.3217   36.3906 U7         2 LUT      0.084728
    224 H27        86.9164   67.0036   37.0446 U6         2 LUT      0.087291
    225 H26        86.4649   64.7363   35.2677 Q6         2 LUT      0.075325
    226 H24        87.8405   66.6754   32.0302 Q5         2 LUT      0.094482
    227 H23        89.9251   66.1163   33.3229 U3         2 LUT     -0.024869
    228 H22        69.0311   61.3004   52.4281 U2         2 LUT      0.127376
    229 H21        69.3709   62.9072   51.4681 U2         2 LUT      0.127376
    230 H15        77.0569   63.3182   40.5945 T3         2 LUT      0.093200
    231 H14        76.0496   64.1084   43.4946 T2         2 LUT      0.068865
    232 H12        74.1793   63.8757   44.3307 T1         2 LUT      0.095507
    233 H11        72.3868   61.8498   43.1391 U9         2 LUT      0.068930
    234 H10        72.4492   63.4912   45.7714 U8         2 LUT      0.083911
    235 H1         89.6811   65.0556   31.2390 Q1         2 LUT      0.297311
@<TRIPOS>BOND
    1     6     1 1
    2     7     2 1
    3     8     3 1
    4     9     4 1
    5    11     4 1
    6    12     6 1
    7    13     9 1
    8    16     9 1
    9    25     5 1
   10    25    16 1
   11    26    10 1
   12    26    17 1
   13    27    18 1
   14    28    14 1
   15    28    19 1
   16    29    12 1
   17    30    13 1
   18    31    24 1
   19    32     1 1
   20    32    25 1
   21    33    21 1
   22    33    26 1
   23    34    22 1
   24    34    27 1
   25    35    23 1
   26    35    28 1
   27    36    12 1
   28    36    24 1
   29    37    13 1
   30    37    15 1
   31    38    31 1
   32    39    20 1
   33    39    32 1
   34    40     2 1
   35    40    33 1
   36    41     3 1
   37    41    34 1
   38    42     4 1
   39    42    35 1
   40    43    38 1
   41    44     5 1
   42    44    17 1
   43    44    39 1
   44    45    10 1
   45    45    18 1
   46    45    40 1
   47    46    19 1
   48    46    41 1
   49    47    14 1
   50    47    16 1
   51    47    42 1
   52    48    38 1
   53    49    48 1
   54    50    49 1
   55    51    50 1
   56    52    51 1
   57    53    51 1
   58    54    53 1
   59    55    54 1
   60    56    55 1
   61    57    56 1
   62    58    56 1
   63    59    58 1
   64    60    59 1
   65    61    60 1
   66    62    61 1
   67    63    61 1
   68    64    27 1
   69    64    46 1
   70    65     5 1
   71    65    10 1
   72    65    64 1
   73    65    14 1
   74    66    23 1
   75    67    23 1
   76    68    23 1
   77    69    22 1
   78    70    22 1
   79    71    22 1
   80    72    21 1
   81    73    21 1
   82    74    21 1
   83    75    20 1
   84    76    20 1
   85    77    20 1
   86    78    15 1
   87    79    15 1
   88    80    15 1
   89    81     8 1
   90    82     8 1
   91    83     8 1
   92    84     7 1
   93    85     7 1
   94    86     6 1
   95    87     6 1
   96    88     3 1
   97    89     3 1
   98    90     1 1
   99    91     1 1
  100    92    63 1
  101    93    63 1
  102    94    63 1
  103    95    62 1
  104    96    62 1
  105    97    62 1
  106    98    60 1
  107    99    60 1
  108   100    59 1
  109   101    59 1
  110   102    58 1
  111   103    58 1
  112   104    57 1
  113   105    57 1
  114   106    57 1
  115   107    55 1
  116   108    55 1
  117   109    54 1
  118   110    54 1
  119   111    53 1
  120   112    53 1
  121   113    19 1
  122   114    18 1
  123   115    17 1
  124   116     9 1
  125   117     2 1
  126   118    52 1
  127   119    52 1
  128   120    52 1
  129   121    51 1
  130   122    50 1
  131   123    50 1
  132   124    49 1
  133   125    49 1
  134   126    48 1
  135   127    48 1
  136   128    43 1
  137   129    43 1
  138   130    43 1
  139   131    39 1
  140   132    32 1
  141   133    31 1
  142   134    61 1
  143   135    56 1
  144   136    24 1
  145   137    24 1
  146   139   138 1
  147   140   139 1
  148   141   140 1
  149   142   140 1
  150   143   142 1
  151   144   138 1
  152   144   143 1
  153   145   144 1
  154   146   145 1
  155   147   146 1
  156   148   147 1
  157   149   148 1
  158   150   149 1
  159   151   150 1
  160   152   151 1
  161   153   152 1
  162   154   138 1
  163   155   138 1
  164   156   143 1
  165   157   147 1
  166   158   151 1
  167   160   159 1
  168   161   160 1
  169   162   161 1
  170   163   161 1
  171   164   163 1
  172   165   159 1
  173   165   164 1
  174   166   165 1
  175   167   166 1
  176   168   167 1
  177   169   168 1
  178   170   169 1
  179   171   170 1
  180   172   171 1
  181   173   172 1
  182   174   153 1
  183   174   173 1
  184   175   159 1
  185   176   159 1
  186   177   164 1
  187   178   168 1
  188   179   172 1
  189   180   179 1
  190   181   179 1
  191   182   179 1
  192   183   178 1
  193   184   178 1
  194   185   178 1
  195   186   177 1
  196   187   177 1
  197   188   177 1
  198   189   176 1
  199   190   176 1
  200   191   176 1
  201   192   175 1
  202   193   175 1
  203   194   175 1
  204   195   160 1
  205   196   160 1
  206   197   158 1
  207   198   158 1
  208   199   158 1
  209   200   157 1
  210   201   157 1
  211   202   157 1
  212   203   156 1
  213   204   156 1
  214   205   156 1
  215   206   155 1
  216   207   155 1
  217   208   155 1
  218   209   154 1
  219   210   154 1
  220   211   154 1
  221   212   141 1
  222   213   146 1
  223   214   145 1
  224   215   142 1
  225   216   142 1
  226   217   174 1
  227   218   173 1
  228   219   171 1
  229   220   170 1
  230   221   169 1
  231   222   140 1
  232   223   167 1
  233   224   166 1
  234   225   165 1
  235   226   163 1
  236   227   161 1
  237   228   139 1
  238   229   139 1
  239   230   153 1
  240   231   152 1
  241   232   150 1
  242   233   149 1
  243   234   148 1
  244   235   162 1
  245   65    153 1
  246   65    174 1
@<TRIPOS>SUBSTRUCTURE
      1 CLA               1 ****               0 ****  **** 
      2 LUT             138 ****               0 ****  **** 
