@<TRIPOS>MOLECULE
Cpptraj generated mol2 file.
  235   246     2     0     0
SMALL
USER_CHARGES


@<TRIPOS>ATOM
      1 CAA        77.6856   58.1099   34.3138 a2         1 CLA     -0.055900
      2 CAB        77.9120   61.4974   43.1836 c8         1 CLA     -0.148500
      3 CAC        70.8056   57.6286   43.0662 a2         1 CLA     -0.012600
      4 CAD        73.1413   55.4263   35.5577 ck         1 CLA      0.398800
      5 NA         76.6616   58.1576   37.6765 ns         1 CLA     -0.225500
      6 CBA        78.7983   57.6827   33.3020 a2         1 CLA     -0.135000
      7 CBB        79.0246   61.3781   43.9522 c0         1 CLA     -0.395200
      8 CBC        70.7229   56.1144   42.9333 a3         1 CLA     -0.037700
      9 CBD        74.5976   55.9590   35.1455 a1         1 CLA     -0.053900
     10 NB         76.6186   59.5109   40.3052 nm         1 CLA     -0.295700
     11 OBD        72.4606   54.6459   34.9027 o2         1 CLA     -0.494600
     12 CGA        78.9945   56.1678   32.8410 c4         1 CLA      0.827000
     13 CGD        75.4939   54.8435   34.7431 c4         1 CLA      0.655300
     14 ND         73.9071   57.2684   38.4447 nm         1 CLA     -0.291600
     15 CED        76.1333   52.5097   35.4345 a3         1 CLA      0.005400
     16 CHA        75.0959   56.8598   36.3365 cs         1 CLA     -0.123800
     17 CHB        78.5105   59.1985   38.7991 aa         1 CLA     -0.291900
     18 CHC        75.3515   60.0623   42.2920 aa         1 CLA     -0.090400
     19 CHD        72.2009   57.2722   40.1561 aa         1 CLA     -0.052000
     20 CMA        79.8863   56.9375   36.9654 a3         1 CLA     -0.230700
     21 CMB        79.8941   61.2756   40.6861 a3         1 CLA     -0.180800
     22 CMC        72.9637   59.8487   44.3714 a3         1 CLA     -0.134000
     23 CMD        70.5981   55.4566   38.0616 a3         1 CLA     -0.141100
     24 C1         79.3577   53.8384   33.6417 a2         1 CLA      0.023000
     25 C1A        76.3684   57.5225   36.5422 ac         1 CLA     -0.015100
     26 C1B        77.9502   59.7409   39.9012 cr         1 CLA      0.054700
     27 C1C        74.2673   59.2423   42.1120 cn         1 CLA     -0.005600
     28 C1D        72.6462   56.9345   38.8300 ap         1 CLA     -0.047300
     29 O1A        78.8875   55.7650   31.6872 o2         1 CLA     -0.610800
     30 O1D        76.2168   54.8482   33.7125 o2         1 CLA     -0.558200
     31 C2         79.7383   53.1805   34.9309 c8         1 CLA     -0.325100
     32 C2A        77.6671   57.4042   35.6651 a1         1 CLA      0.098600
     33 C2B        78.6057   60.5830   40.8927 cb         1 CLA      0.088500
     34 C2C        73.1244   59.0951   43.0390 cb         1 CLA      0.053700
     35 C2D        71.9965   56.1245   37.8942 cb         1 CLA      0.058900
     36 O2A        79.1888   55.3243   33.9296 o1         1 CLA     -0.437200
     37 O2D        75.4508   53.7778   35.6680 o1         1 CLA     -0.357600
     38 C3         80.3901   52.0125   35.0371 c5         1 CLA      0.031200
     39 C3A        78.7668   57.9632   36.5898 a1         1 CLA      0.166800
     40 C3B        77.6805   60.8245   41.8948 cb         1 CLA      0.035000
     41 C3C        72.2073   58.1781   42.5022 cb         1 CLA     -0.089900
     42 C3D        72.8911   56.0247   36.8932 cb         1 CLA     -0.035900
     43 C4         79.6286   50.6988   35.4120 a3         1 CLA     -0.053300
     44 C4A        77.9623   58.4792   37.7283 ac         1 CLA      0.001800
     45 C4B        76.4515   60.1534   41.5245 cn         1 CLA     -0.020900
     46 C4C        72.7715   57.9054   41.1918 cr         1 CLA     -0.044400
     47 C4D        74.0430   56.8377   37.2149 c6         1 CLA     -0.046000
     48 C5         81.8616   51.8055   34.7353 a2         1 CLA     -0.070400
     49 C6         82.7427   52.9769   35.0362 a2         1 CLA      0.043900
     50 C7         83.0259   53.1626   36.5369 a2         1 CLA     -0.150000
     51 C8         83.6465   54.5113   37.0119 a1         1 CLA      0.064200
     52 C9         85.0399   54.6685   36.4316 a3         1 CLA     -0.259300
     53 C10        83.5751   54.5147   38.5358 a2         1 CLA     -0.071900
     54 C11        82.1798   54.8284   39.1572 a2         1 CLA      0.014500
     55 C12        82.3677   55.2429   40.6998 a2         1 CLA     -0.112100
     56 C13        81.0637   55.4071   41.5391 a1         1 CLA      0.089200
     57 C14        80.1236   56.4394   40.8496 a3         1 CLA     -0.239100
     58 C15        81.2888   55.7705   43.0881 a2         1 CLA     -0.102200
     59 C16        82.2174   56.8699   43.3828 a2         1 CLA      0.023900
     60 C17        82.5463   56.9902   44.8754 a2         1 CLA     -0.105700
     61 C18        82.6272   58.3792   45.4647 a1         1 CLA      0.206800
     62 C19        83.8229   59.2673   45.1357 a3         1 CLA     -0.280100
     63 C20        81.3996   59.2424   45.2792 a3         1 CLA     -0.280100
     64 NC         74.0375   58.4251   41.0571 nx         1 CLA     -0.309200
     65 MG         75.2932   58.3862   39.2844 mg         1 CLA      0.895000
     66 HMD3       69.7960   56.2142   37.9968 dc         1 CLA      0.064300
     67 HMD2       70.4140   54.7732   37.2496 dc         1 CLA      0.064300
     68 HMD1       70.4495   54.9668   39.0292 dc         1 CLA      0.064300
     69 HMC3       73.5412   59.3768   45.0935 dc         1 CLA      0.052100
     70 HMC2       73.3394   60.9158   44.2612 dc         1 CLA      0.052100
     71 HMC1       71.8984   59.8221   44.7505 dc         1 CLA      0.052100
     72 HMB3       80.1268   62.0457   41.3959 dc         1 CLA      0.063600
     73 HMB2       80.7306   60.5508   40.7695 dc         1 CLA      0.063600
     74 HMB1       79.8766   61.6750   39.6677 dc         1 CLA      0.063600
     75 HMA3       80.4024   57.2119   37.9074 dc         1 CLA      0.058300
     76 HMA2       79.4306   55.9631   37.1223 dc         1 CLA      0.058300
     77 HMA1       80.5935   56.8142   36.2237 dc         1 CLA      0.058300
     78 HED3       76.2358   51.8683   36.3174 dc         1 CLA      0.079300
     79 HED2       75.8123   51.9890   34.4747 dc         1 CLA      0.079300
     80 HED1       77.1549   52.7322   35.1884 dc         1 CLA      0.079300
     81 HBC3       69.6624   55.8844   43.0959 dc         1 CLA      0.016300
     82 HBC2       70.8783   55.6771   41.9821 dc         1 CLA      0.016300
     83 HBC1       71.3721   55.6966   43.7005 dc         1 CLA      0.016300
     84 HBB2       79.0904   62.1303   44.7876 da         1 CLA      0.183000
     85 HBB1       79.8774   60.7824   43.6743 da         1 CLA      0.183000
     86 HBA2       78.8009   58.3479   32.4217 dc         1 CLA      0.029400
     87 HBA1       79.7184   57.8997   33.8143 dc         1 CLA      0.029400
     88 HAC2       70.6732   57.9421   44.0487 dc         1 CLA      0.029300
     89 HAC1       69.9386   58.0379   42.5594 dc         1 CLA      0.029300
     90 HAA2       76.6723   57.9372   33.9345 dc         1 CLA      0.028700
     91 HAA1       77.6889   59.2109   34.3489 dc         1 CLA      0.028700
     92 H203       81.4937   60.1669   45.8082 dc         1 CLA      0.065600
     93 H202       81.3807   59.4556   44.2714 dc         1 CLA      0.065600
     94 H201       80.5611   58.6344   45.4815 dc         1 CLA      0.065600
     95 H193       83.6780   60.3192   45.4667 dc         1 CLA      0.065600
     96 H192       84.6708   58.8602   45.6888 dc         1 CLA      0.065600
     97 H191       84.0007   59.2141   44.0451 dc         1 CLA      0.065600
     98 H172       81.7321   56.4728   45.4945 dc         1 CLA      0.027600
     99 H171       83.4958   56.5436   45.0249 dc         1 CLA      0.027600
    100 H162       83.1966   56.5633   42.9884 dc         1 CLA      0.002900
    101 H161       81.8704   57.8599   42.9177 dc         1 CLA      0.002900
    102 H152       80.2833   56.0162   43.4804 dc         1 CLA      0.029100
    103 H151       81.6209   54.8875   43.6983 dc         1 CLA      0.029100
    104 H143       79.2703   56.6993   41.4461 dc         1 CLA      0.063600
    105 H142       80.6383   57.3305   40.6974 dc         1 CLA      0.063600
    106 H141       79.8436   56.0461   39.8795 dc         1 CLA      0.063600
    107 H122       83.0557   54.5451   41.0916 dc         1 CLA      0.032500
    108 H121       82.9472   56.1653   40.7179 dc         1 CLA      0.032500
    109 H112       81.6548   55.5631   38.6414 dc         1 CLA      0.006600
    110 H111       81.5987   53.9010   39.0916 dc         1 CLA      0.006600
    111 H102       84.0566   53.5002   38.8273 dc         1 CLA      0.024100
    112 H101       84.3074   55.2028   38.8905 dc         1 CLA      0.024100
    113 HHD        71.1926   56.9581   40.3916 da         1 CLA      0.174300
    114 HHC        75.3521   60.5422   43.2845 da         1 CLA      0.136800
    115 HHB        79.5685   59.4076   38.7595 da         1 CLA      0.138300
    116 HBD        74.5593   56.6560   34.2864 dc         1 CLA      0.107700
    117 HAB        77.1283   62.1788   43.5496 da         1 CLA      0.155200
    118 H93        85.3236   55.6872   36.6831 dc         1 CLA      0.069500
    119 H92        85.7660   54.0131   36.8225 dc         1 CLA      0.069500
    120 H91        84.9938   54.5013   35.3797 dc         1 CLA      0.069500
    121 H8         83.0892   55.4380   36.7091 dc         1 CLA      0.029300
    122 H72        82.0676   53.0368   36.9912 dc         1 CLA      0.044400
    123 H71        83.7210   52.3596   36.9338 dc         1 CLA      0.044400
    124 H62        83.6350   52.8355   34.5177 dc         1 CLA      0.015600
    125 H61        82.3440   53.8911   34.6780 dc         1 CLA      0.015600
    126 H52        82.2893   50.9096   35.1948 dc         1 CLA      0.033200
    127 H51        81.9955   51.8174   33.6305 dc         1 CLA      0.033200
    128 H43        78.6077   50.8381   35.6282 dc         1 CLA      0.037000
    129 H42        79.6033   50.0315   34.5719 dc         1 CLA      0.037000
    130 H41        80.0629   50.2558   36.3381 dc         1 CLA      0.037000
    131 H3A        79.2555   58.8552   36.1001 dc         1 CLA      0.041100
    132 H2A        77.8132   56.3502   35.6151 dc         1 CLA      0.083100
    133 H2         79.6856   53.8424   35.8011 da         1 CLA      0.180900
    134 H18        82.5492   58.2040   46.5810 dc         1 CLA     -0.003900
    135 H13        80.6205   54.4422   41.3923 dc         1 CLA      0.019700
    136 H12        78.4120   53.3933   33.3491 dc         1 CLA      0.120400
    137 H11        80.0726   53.5712   32.8784 dc         1 CLA      0.120400
    138 C1         67.2521   61.3124   50.5828 Z1         2 LUT      0.509236
    139 C2         67.2763   62.5715   51.4038 Z2         2 LUT     -0.434695
    140 C3         66.0058   63.4075   51.2740 Z3         2 LUT      0.437453
    141 O3         66.3825   64.7306   51.6726 S1         2 LUT     -0.547129
    142 C4         65.3421   63.3951   49.9435 Z4         2 LUT     -0.468603
    143 C5         66.0333   62.6289   48.7842 Z5         2 LUT      0.279246
    144 C6         66.9131   61.6317   49.0726 Z6         2 LUT     -0.305473
    145 C7         67.8520   61.1646   48.0356 Z7         2 LUT      0.069402
    146 C8         68.5928   61.8216   47.0632 Z8         2 LUT     -0.191631
    147 C9         69.0373   61.4018   45.7026 Z9         2 LUT      0.196698
    148 C10        69.9280   62.2774   45.0407 Y1         2 LUT     -0.208611
    149 C11        70.5127   62.1352   43.8086 Y2         2 LUT      0.030784
    150 C12        71.5200   62.9627   43.2834 Y3         2 LUT     -0.220316
    151 C13        72.4002   62.8491   42.1192 Y4         2 LUT      0.215937
    152 C14        73.6443   63.3918   42.1384 Y5         2 LUT     -0.185793
    153 C15        74.7293   63.3806   41.1814 Y6         2 LUT     -0.057835
    154 C16        66.0641   60.4033   51.0759 Y7         2 LUT     -0.405615
    155 C17        68.6515   60.7185   50.7928 Y7         2 LUT     -0.405615
    156 C18        65.8812   63.3539   47.4837 Y9         2 LUT     -0.369639
    157 C19        68.5276   60.0936   45.1117 W1         2 LUT     -0.333362
    158 C20        71.7896   62.0158   40.9893 W2         2 LUT     -0.323439
    159 C21        86.0711   64.4595   35.1562 Z1         2 LUT      0.406104
    160 C22        86.8722   63.8413   34.0007 Z2         2 LUT     -0.404965
    161 C23        87.1763   64.6817   32.7768 Z3         2 LUT      0.391255
    162 O23        87.9667   63.8649   31.8956 S1         2 LUT     -0.528210
    163 C24        86.0076   65.5277   32.4673 W6         2 LUT     -0.258361
    164 C25        84.9006   65.6865   33.2067 Z5         2 LUT      0.133546
    165 C26        84.6758   64.9594   34.5366 W8         2 LUT     -0.147008
    166 C27        83.8240   65.6474   35.5979 Z7         2 LUT      0.023843
    167 C28        82.8442   65.0525   36.2797 Z8         2 LUT     -0.216987
    168 C29        81.9261   65.5824   37.2940 Z9         2 LUT      0.206524
    169 C30        81.0117   64.7772   37.9105 Y1         2 LUT     -0.215556
    170 C31        80.2268   64.9423   39.1152 Y2         2 LUT      0.025142
    171 C32        79.1352   64.2269   39.4789 Y3         2 LUT     -0.212209
    172 C33        78.2989   64.3385   40.5982 Y4         2 LUT      0.240937
    173 C34        77.0380   63.7410   40.4929 Y5         2 LUT     -0.218862
    174 C35        75.9990   63.8385   41.4739 Y6         2 LUT     -0.023547
    175 C36        86.9045   65.6324   35.7114 Y7         2 LUT     -0.393485
    176 C37        86.0885   63.4925   36.3625 Y7         2 LUT     -0.393485
    177 C38        83.8097   66.6727   32.7344 Y9         2 LUT     -0.387526
    178 C39        82.1785   66.9405   37.8435 W1         2 LUT     -0.322618
    179 C40        78.7843   65.0445   41.7892 W2         2 LUT     -0.358472
    180 H403       78.4371   66.0433   41.7685 R7         2 LUT      0.097720
    181 H402       78.3484   64.6758   42.7091 R7         2 LUT      0.097720
    182 H401       79.9211   65.0201   41.8001 R7         2 LUT      0.097720
    183 H393       83.2083   67.0085   38.1103 R4         2 LUT      0.082505
    184 H392       81.9564   67.7517   37.0772 R4         2 LUT      0.082505
    185 H391       81.5235   67.2536   38.6770 R4         2 LUT      0.082505
    186 H383       82.8165   66.2976   32.8443 R1         2 LUT      0.104030
    187 H382       83.7907   67.4596   33.5367 R1         2 LUT      0.104030
    188 H381       83.9611   67.0953   31.7452 R1         2 LUT      0.104030
    189 H373       85.7429   62.4846   36.0692 T4         2 LUT      0.089537
    190 H372       87.0987   63.3166   36.7445 T4         2 LUT      0.089537
    191 H371       85.4573   63.8621   37.2175 T4         2 LUT      0.089537
    192 H363       87.1483   66.2519   34.8750 T4         2 LUT      0.089537
    193 H362       86.3929   66.1107   36.5633 T4         2 LUT      0.089537
    194 H361       87.8639   65.3748   36.1728 T4         2 LUT      0.089537
    195 H222       87.7824   63.4455   34.3848 U2         2 LUT      0.127376
    196 H221       86.3961   62.9634   33.6647 U2         2 LUT      0.127376
    197 H203       70.9958   61.2583   41.2608 R7         2 LUT      0.087068
    198 H202       71.2585   62.7040   40.2975 R7         2 LUT      0.087068
    199 H201       72.5415   61.4167   40.4448 R7         2 LUT      0.087068
    200 H193       68.2690   60.0554   44.0300 R4         2 LUT      0.089716
    201 H192       69.1286   59.2287   45.2941 R4         2 LUT      0.089716
    202 H191       67.5604   59.8386   45.5059 R4         2 LUT      0.089716
    203 H183       64.8884   63.8415   47.3863 R1         2 LUT      0.094572
    204 H182       66.6460   64.1118   47.4024 R1         2 LUT      0.094572
    205 H181       66.0902   62.6002   46.6007 R1         2 LUT      0.094572
    206 H173       69.0845   60.7300   51.8175 T4         2 LUT      0.093752
    207 H172       68.6982   59.5933   50.5912 T4         2 LUT      0.093752
    208 H171       69.3511   61.2282   50.1681 T4         2 LUT      0.093752
    209 H163       66.0957   60.2491   52.1010 T4         2 LUT      0.093752
    210 H162       65.1155   60.8293   50.8349 T4         2 LUT      0.093752
    211 H161       65.9933   59.5052   50.4646 T4         2 LUT      0.093752
    212 HO3        65.8489   64.9834   52.4705 Q1         2 LUT      0.300121
    213 H8         68.6358   62.8839   47.1272 U7         2 LUT      0.080784
    214 H7         67.6511   60.1730   47.6793 U6         2 LUT      0.042190
    215 H42        64.3737   62.9139   50.0691 U5         2 LUT      0.145166
    216 H41        65.1443   64.4376   49.6098 U5         2 LUT      0.145166
    217 H35        76.2364   64.2915   42.4464 T3         2 LUT      0.077919
    218 H34        76.8603   63.1353   39.5795 T2         2 LUT      0.073626
    219 H32        78.7364   63.6235   38.6990 T1         2 LUT      0.092510
    220 H31        80.5259   65.6808   39.8270 U9         2 LUT      0.070048
    221 H30        80.6852   63.8267   37.3742 U8         2 LUT      0.085442
    222 H3         65.3661   63.0110   52.0224 U3         2 LUT     -0.031596
    223 H28        82.6875   63.9799   36.0992 U7         2 LUT      0.084728
    224 H27        83.9536   66.7277   35.6947 U6         2 LUT      0.087291
    225 H26        84.2289   64.0623   34.1313 Q6         2 LUT      0.075325
    226 H24        86.1531   66.0630   31.4902 Q5         2 LUT      0.094482
    227 H23        87.9598   65.3411   33.0967 U3         2 LUT     -0.024869
    228 H22        67.5136   62.3157   52.4418 U2         2 LUT      0.127376
    229 H21        68.1172   63.2435   51.1239 U2         2 LUT      0.127376
    230 H15        74.6476   62.9332   40.2254 T3         2 LUT      0.093200
    231 H14        73.7857   63.9929   42.9830 T2         2 LUT      0.068865
    232 H12        71.7289   63.7345   44.0560 T1         2 LUT      0.095507
    233 H11        70.0622   61.2936   43.2746 U9         2 LUT      0.068930
    234 H10        70.2690   63.1426   45.7218 U8         2 LUT      0.083911
    235 H1         87.9295   64.2248   30.9835 Q1         2 LUT      0.297311
@<TRIPOS>BOND
    1     6     1 1
    2     7     2 1
    3     8     3 1
    4     9     4 1
    5    11     4 1
    6    12     6 1
    7    13     9 1
    8    16     9 1
    9    25     5 1
   10    25    16 1
   11    26    10 1
   12    26    17 1
   13    27    18 1
   14    28    14 1
   15    28    19 1
   16    29    12 1
   17    30    13 1
   18    31    24 1
   19    32     1 1
   20    32    25 1
   21    33    21 1
   22    33    26 1
   23    34    22 1
   24    34    27 1
   25    35    23 1
   26    35    28 1
   27    36    12 1
   28    36    24 1
   29    37    13 1
   30    37    15 1
   31    38    31 1
   32    39    20 1
   33    39    32 1
   34    40     2 1
   35    40    33 1
   36    41     3 1
   37    41    34 1
   38    42     4 1
   39    42    35 1
   40    43    38 1
   41    44     5 1
   42    44    17 1
   43    44    39 1
   44    45    10 1
   45    45    18 1
   46    45    40 1
   47    46    19 1
   48    46    41 1
   49    47    14 1
   50    47    16 1
   51    47    42 1
   52    48    38 1
   53    49    48 1
   54    50    49 1
   55    51    50 1
   56    52    51 1
   57    53    51 1
   58    54    53 1
   59    55    54 1
   60    56    55 1
   61    57    56 1
   62    58    56 1
   63    59    58 1
   64    60    59 1
   65    61    60 1
   66    62    61 1
   67    63    61 1
   68    64    27 1
   69    64    46 1
   70    65     5 1
   71    65    10 1
   72    65    64 1
   73    65    14 1
   74    66    23 1
   75    67    23 1
   76    68    23 1
   77    69    22 1
   78    70    22 1
   79    71    22 1
   80    72    21 1
   81    73    21 1
   82    74    21 1
   83    75    20 1
   84    76    20 1
   85    77    20 1
   86    78    15 1
   87    79    15 1
   88    80    15 1
   89    81     8 1
   90    82     8 1
   91    83     8 1
   92    84     7 1
   93    85     7 1
   94    86     6 1
   95    87     6 1
   96    88     3 1
   97    89     3 1
   98    90     1 1
   99    91     1 1
  100    92    63 1
  101    93    63 1
  102    94    63 1
  103    95    62 1
  104    96    62 1
  105    97    62 1
  106    98    60 1
  107    99    60 1
  108   100    59 1
  109   101    59 1
  110   102    58 1
  111   103    58 1
  112   104    57 1
  113   105    57 1
  114   106    57 1
  115   107    55 1
  116   108    55 1
  117   109    54 1
  118   110    54 1
  119   111    53 1
  120   112    53 1
  121   113    19 1
  122   114    18 1
  123   115    17 1
  124   116     9 1
  125   117     2 1
  126   118    52 1
  127   119    52 1
  128   120    52 1
  129   121    51 1
  130   122    50 1
  131   123    50 1
  132   124    49 1
  133   125    49 1
  134   126    48 1
  135   127    48 1
  136   128    43 1
  137   129    43 1
  138   130    43 1
  139   131    39 1
  140   132    32 1
  141   133    31 1
  142   134    61 1
  143   135    56 1
  144   136    24 1
  145   137    24 1
  146   139   138 1
  147   140   139 1
  148   141   140 1
  149   142   140 1
  150   143   142 1
  151   144   138 1
  152   144   143 1
  153   145   144 1
  154   146   145 1
  155   147   146 1
  156   148   147 1
  157   149   148 1
  158   150   149 1
  159   151   150 1
  160   152   151 1
  161   153   152 1
  162   154   138 1
  163   155   138 1
  164   156   143 1
  165   157   147 1
  166   158   151 1
  167   160   159 1
  168   161   160 1
  169   162   161 1
  170   163   161 1
  171   164   163 1
  172   165   159 1
  173   165   164 1
  174   166   165 1
  175   167   166 1
  176   168   167 1
  177   169   168 1
  178   170   169 1
  179   171   170 1
  180   172   171 1
  181   173   172 1
  182   174   153 1
  183   174   173 1
  184   175   159 1
  185   176   159 1
  186   177   164 1
  187   178   168 1
  188   179   172 1
  189   180   179 1
  190   181   179 1
  191   182   179 1
  192   183   178 1
  193   184   178 1
  194   185   178 1
  195   186   177 1
  196   187   177 1
  197   188   177 1
  198   189   176 1
  199   190   176 1
  200   191   176 1
  201   192   175 1
  202   193   175 1
  203   194   175 1
  204   195   160 1
  205   196   160 1
  206   197   158 1
  207   198   158 1
  208   199   158 1
  209   200   157 1
  210   201   157 1
  211   202   157 1
  212   203   156 1
  213   204   156 1
  214   205   156 1
  215   206   155 1
  216   207   155 1
  217   208   155 1
  218   209   154 1
  219   210   154 1
  220   211   154 1
  221   212   141 1
  222   213   146 1
  223   214   145 1
  224   215   142 1
  225   216   142 1
  226   217   174 1
  227   218   173 1
  228   219   171 1
  229   220   170 1
  230   221   169 1
  231   222   140 1
  232   223   167 1
  233   224   166 1
  234   225   165 1
  235   226   163 1
  236   227   161 1
  237   228   139 1
  238   229   139 1
  239   230   153 1
  240   231   152 1
  241   232   150 1
  242   233   149 1
  243   234   148 1
  244   235   162 1
  245   65    153 1
  246   65    174 1
@<TRIPOS>SUBSTRUCTURE
      1 CLA               1 ****               0 ****  **** 
      2 LUT             138 ****               0 ****  **** 
