@<TRIPOS>MOLECULE
Cpptraj generated mol2 file.
  235   246     2     0     0
SMALL
USER_CHARGES


@<TRIPOS>ATOM
      1 CAA        77.8320   57.8898   34.9192 a2         1 CLA     -0.055900
      2 CAB        77.6382   61.8108   43.8603 c8         1 CLA     -0.148500
      3 CAC        71.0457   57.4498   43.6112 a2         1 CLA     -0.012600
      4 CAD        73.8957   55.2889   36.2939 ck         1 CLA      0.398800
      5 NA         76.7964   58.4003   38.3396 ns         1 CLA     -0.225500
      6 CBA        79.1366   57.7372   34.0486 a2         1 CLA     -0.135000
      7 CBB        77.5278   61.3257   45.0671 c0         1 CLA     -0.395200
      8 CBC        71.2147   55.9604   43.7276 a3         1 CLA     -0.037700
      9 CBD        75.2939   55.8393   35.9870 a1         1 CLA     -0.053900
     10 NB         76.5215   59.9379   40.8211 nm         1 CLA     -0.295700
     11 OBD        73.3571   54.5366   35.5230 o2         1 CLA     -0.494600
     12 CGA        79.6968   56.3096   33.9801 c4         1 CLA      0.827000
     13 CGD        76.2392   54.6714   35.8233 c4         1 CLA      0.655300
     14 ND         74.1178   57.2560   39.0650 nm         1 CLA     -0.291600
     15 CED        77.0591   52.6924   36.9088 a3         1 CLA      0.005400
     16 CHA        75.5210   56.8123   37.1115 cs         1 CLA     -0.123800
     17 CHB        78.3795   59.9627   39.2364 aa         1 CLA     -0.291900
     18 CHC        75.0708   60.2957   42.8261 aa         1 CLA     -0.090400
     19 CHD        72.2683   56.9926   40.6855 aa         1 CLA     -0.052000
     20 CMA        80.2006   57.7224   37.9031 a3         1 CLA     -0.230700
     21 CMB        79.7095   61.7843   41.4051 a3         1 CLA     -0.180800
     22 CMC        72.8875   59.9590   44.9120 a3         1 CLA     -0.134000
     23 CMD        71.0557   55.1115   38.4368 a3         1 CLA     -0.141100
     24 C1         81.0393   54.5413   35.0881 a2         1 CLA      0.023000
     25 C1A        76.6236   57.6324   37.2311 ac         1 CLA     -0.015100
     26 C1B        77.7353   60.4211   40.4025 cr         1 CLA      0.054700
     27 C1C        73.9801   59.4783   42.5681 cn         1 CLA     -0.005600
     28 C1D        72.8674   56.6464   39.4525 ap         1 CLA     -0.047300
     29 O1A        79.3440   55.4794   33.1306 o2         1 CLA     -0.610800
     30 O1D        77.1600   54.5429   35.0107 o2         1 CLA     -0.558200
     31 C2         81.6327   54.3129   36.4268 c8         1 CLA     -0.325100
     32 C2A        77.9353   57.5536   36.4297 a1         1 CLA      0.098600
     33 C2B        78.3415   61.2101   41.4589 cb         1 CLA      0.088500
     34 C2C        72.9548   59.2111   43.5663 cb         1 CLA      0.053700
     35 C2D        72.3771   55.7606   38.4504 cb         1 CLA      0.058900
     36 O2A        80.6665   55.9707   34.9773 o1         1 CLA     -0.437200
     37 O2D        76.1285   53.8741   36.9717 o1         1 CLA     -0.357600
     38 C3         81.7108   53.2272   37.2021 c5         1 CLA      0.031200
     39 C3A        78.9599   58.4854   37.2093 a1         1 CLA      0.166800
     40 C3B        77.4605   61.1669   42.5113 cb         1 CLA      0.035000
     41 C3C        72.1642   58.1723   42.9760 cb         1 CLA     -0.089900
     42 C3D        73.4860   55.7232   37.5593 cb         1 CLA     -0.035900
     43 C4         80.6091   52.9204   38.2662 a3         1 CLA     -0.053300
     44 C4A        78.0121   58.9916   38.3658 ac         1 CLA      0.001800
     45 C4B        76.2637   60.4376   42.1248 cn         1 CLA     -0.020900
     46 C4C        72.7240   57.9159   41.6810 cr         1 CLA     -0.044400
     47 C4D        74.4472   56.6644   37.9890 c6         1 CLA     -0.046000
     48 C5         83.0051   52.3869   37.3748 a2         1 CLA     -0.070400
     49 C6         84.2398   53.1845   37.2896 a2         1 CLA      0.043900
     50 C7         84.2821   54.0878   38.5035 a2         1 CLA     -0.150000
     51 C8         85.2908   55.2486   38.4790 a1         1 CLA      0.064200
     52 C9         86.7454   54.6475   38.3785 a3         1 CLA     -0.259300
     53 C10        85.1812   56.1856   39.7143 a2         1 CLA     -0.071900
     54 C11        83.8518   56.6430   40.2340 a2         1 CLA      0.014500
     55 C12        83.8466   57.8469   41.2056 a2         1 CLA     -0.112100
     56 C13        84.6264   57.6870   42.5029 a1         1 CLA      0.089200
     57 C14        84.0201   56.5204   43.3439 a3         1 CLA     -0.239100
     58 C15        84.5578   59.0934   43.3330 a2         1 CLA     -0.102200
     59 C16        83.2069   59.4849   43.9546 a2         1 CLA      0.023900
     60 C17        83.3565   60.4953   45.1172 a2         1 CLA     -0.105700
     61 C18        82.0782   61.0552   45.7474 a1         1 CLA      0.206800
     62 C19        81.0702   59.9690   46.2934 a3         1 CLA     -0.280100
     63 C20        82.4099   62.1817   46.7931 a3         1 CLA     -0.280100
     64 NC         73.8577   58.6532   41.5267 nx         1 CLA     -0.309200
     65 MG         75.1831   58.6913   39.8756 mg         1 CLA      0.895000
     66 HMD3       70.3335   55.8629   38.2784 dc         1 CLA      0.064300
     67 HMD2       70.8460   54.2744   37.7417 dc         1 CLA      0.064300
     68 HMD1       70.8356   54.6285   39.3768 dc         1 CLA      0.064300
     69 HMC3       73.7346   59.7055   45.5752 dc         1 CLA      0.052100
     70 HMC2       73.0838   61.0677   44.6815 dc         1 CLA      0.052100
     71 HMC1       71.9077   59.8706   45.3738 dc         1 CLA      0.052100
     72 HMB3       80.5030   61.1102   41.6352 dc         1 CLA      0.063600
     73 HMB2       79.9027   62.0758   40.4028 dc         1 CLA      0.063600
     74 HMB1       79.7231   62.6334   42.1005 dc         1 CLA      0.063600
     75 HMA3       80.2677   58.0396   38.9782 dc         1 CLA      0.058300
     76 HMA2       80.1660   56.6317   37.8696 dc         1 CLA      0.058300
     77 HMA1       81.0751   58.0172   37.3466 dc         1 CLA      0.058300
     78 HED3       76.8795   51.9993   36.0818 dc         1 CLA      0.079300
     79 HED2       78.0842   52.9628   36.9342 dc         1 CLA      0.079300
     80 HED1       76.8517   52.1939   37.8420 dc         1 CLA      0.079300
     81 HBC3       72.2152   55.7024   43.9637 dc         1 CLA      0.016300
     82 HBC2       70.6603   55.7053   44.5829 dc         1 CLA      0.016300
     83 HBC1       70.8456   55.4293   42.8921 dc         1 CLA      0.016300
     84 HBB2       77.7274   61.8204   45.9753 da         1 CLA      0.183000
     85 HBB1       77.4099   60.2549   45.2664 da         1 CLA      0.183000
     86 HBA2       78.9892   57.9879   33.0101 dc         1 CLA      0.029400
     87 HBA1       79.8443   58.4700   34.3830 dc         1 CLA      0.029400
     88 HAC2       70.9279   57.7942   44.6696 dc         1 CLA      0.029300
     89 HAC1       70.0632   57.7011   43.1760 dc         1 CLA      0.029300
     90 HAA2       77.1876   57.1469   34.4643 dc         1 CLA      0.028700
     91 HAA1       77.4850   58.8433   34.7185 dc         1 CLA      0.028700
     92 H203       81.5676   62.6185   47.3386 dc         1 CLA      0.065600
     93 H202       83.1362   61.9482   47.6713 dc         1 CLA      0.065600
     94 H201       82.8590   62.9642   46.2041 dc         1 CLA      0.065600
     95 H193       81.5907   59.4180   47.0727 dc         1 CLA      0.065600
     96 H192       80.1195   60.3231   46.5752 dc         1 CLA      0.065600
     97 H191       80.7685   59.2398   45.5507 dc         1 CLA      0.065600
     98 H172       84.0640   60.1346   45.9039 dc         1 CLA      0.027600
     99 H171       83.9021   61.2941   44.7032 dc         1 CLA      0.027600
    100 H162       82.6768   60.0348   43.1516 dc         1 CLA      0.002900
    101 H161       82.5139   58.6327   44.2124 dc         1 CLA      0.002900
    102 H152       85.2503   58.8431   44.0980 dc         1 CLA      0.029100
    103 H151       84.9085   59.8130   42.6370 dc         1 CLA      0.029100
    104 H143       84.3977   56.2457   44.3709 dc         1 CLA      0.063600
    105 H142       82.9664   56.6588   43.4233 dc         1 CLA      0.063600
    106 H141       84.0245   55.6088   42.7473 dc         1 CLA      0.063600
    107 H122       84.2803   58.6707   40.6748 dc         1 CLA      0.032500
    108 H121       82.8181   58.1575   41.3980 dc         1 CLA      0.032500
    109 H112       83.3321   57.0280   39.3745 dc         1 CLA      0.006600
    110 H111       83.2039   55.8472   40.7065 dc         1 CLA      0.006600
    111 H102       85.7295   55.7176   40.6028 dc         1 CLA      0.024100
    112 H101       85.7543   57.0639   39.5132 dc         1 CLA      0.024100
    113 HHD        71.2799   56.6129   40.8800 da         1 CLA      0.174300
    114 HHC        75.1272   60.9218   43.7624 da         1 CLA      0.136800
    115 HHB        79.3932   60.2741   39.0438 da         1 CLA      0.138300
    116 HBD        75.2919   56.3504   34.9819 dc         1 CLA      0.107700
    117 HAB        77.9972   62.8570   43.8390 da         1 CLA      0.155200
    118 H93        86.8605   53.8322   39.0664 dc         1 CLA      0.069500
    119 H92        86.7848   54.1811   37.4194 dc         1 CLA      0.069500
    120 H91        87.5958   55.3766   38.3105 dc         1 CLA      0.069500
    121 H8         84.9920   55.8656   37.6066 dc         1 CLA      0.029300
    122 H72        83.3516   54.5628   38.5948 dc         1 CLA      0.044400
    123 H71        84.4891   53.5479   39.4574 dc         1 CLA      0.044400
    124 H62        85.1325   52.5921   37.3674 dc         1 CLA      0.015600
    125 H61        84.2758   53.6916   36.4002 dc         1 CLA      0.015600
    126 H52        83.1019   51.8603   38.2750 dc         1 CLA      0.033200
    127 H51        83.0543   51.7137   36.4657 dc         1 CLA      0.033200
    128 H43        79.8753   53.6767   38.4100 dc         1 CLA      0.037000
    129 H42        80.1334   51.9844   37.9230 dc         1 CLA      0.037000
    130 H41        81.0641   52.7570   39.1978 dc         1 CLA      0.037000
    131 H3A        79.3330   59.3240   36.5324 dc         1 CLA      0.041100
    132 H2A        78.2881   56.5126   36.4111 dc         1 CLA      0.083100
    133 H2         81.9674   55.2898   36.8367 da         1 CLA      0.180900
    134 H18        81.5904   61.5352   44.9007 dc         1 CLA     -0.003900
    135 H13        85.6672   57.4532   42.1525 dc         1 CLA      0.019700
    136 H12        80.1079   53.9522   35.0640 dc         1 CLA      0.120400
    137 H11        81.8021   54.1660   34.3319 dc         1 CLA      0.120400
    138 C1         67.6470   61.2252   50.2246 Z1         2 LUT      0.509236
    139 C2         66.4361   61.0694   51.1609 Z2         2 LUT     -0.434695
    140 C3         65.7561   62.3457   51.6479 Z3         2 LUT      0.437453
    141 O3         66.4850   62.7561   52.8944 S1         2 LUT     -0.547129
    142 C4         65.5837   63.3511   50.4946 Z4         2 LUT     -0.468603
    143 C5         66.2099   62.9835   49.1524 Z5         2 LUT      0.279246
    144 C6         67.2134   62.0512   48.9684 Z6         2 LUT     -0.305473
    145 C7         67.6789   61.6412   47.6269 Z7         2 LUT      0.069402
    146 C8         68.9678   61.8455   47.1636 Z8         2 LUT     -0.191631
    147 C9         69.2298   61.6466   45.7693 Z9         2 LUT      0.196698
    148 C10        70.1534   62.5004   45.1281 Y1         2 LUT     -0.208611
    149 C11        70.7329   62.4711   43.8210 Y2         2 LUT      0.030784
    150 C12        71.8205   63.2298   43.5522 Y3         2 LUT     -0.220316
    151 C13        72.7411   63.1321   42.5021 Y4         2 LUT      0.215937
    152 C14        73.9690   63.7596   42.5965 Y5         2 LUT     -0.185793
    153 C15        75.0952   63.7768   41.6898 Y6         2 LUT     -0.057835
    154 C16        68.1979   59.7743   49.9416 Y7         2 LUT     -0.405615
    155 C17        68.8023   61.8092   51.0753 Y7         2 LUT     -0.405615
    156 C18        65.7284   63.8703   48.0127 Y9         2 LUT     -0.369639
    157 C19        68.7779   60.4309   44.9978 W1         2 LUT     -0.333362
    158 C20        72.3313   62.3925   41.2417 W2         2 LUT     -0.323439
    159 C21        86.6224   64.6431   35.5691 Z1         2 LUT      0.406104
    160 C22        87.3172   63.9918   34.3678 Z2         2 LUT     -0.404965
    161 C23        87.3799   64.7815   33.0528 Z3         2 LUT      0.391255
    162 O23        87.5720   63.7827   32.0529 S1         2 LUT     -0.528210
    163 C24        86.0221   65.4697   32.7159 W6         2 LUT     -0.258361
    164 C25        85.0405   65.5943   33.5522 Z5         2 LUT      0.133546
    165 C26        85.1328   65.0570   35.0600 W8         2 LUT     -0.147008
    166 C27        84.4074   65.9601   36.0671 Z7         2 LUT      0.023843
    167 C28        83.2554   65.5330   36.6259 Z8         2 LUT     -0.216987
    168 C29        82.5739   66.0457   37.8720 Z9         2 LUT      0.206524
    169 C30        81.4649   65.4843   38.3384 Y1         2 LUT     -0.215556
    170 C31        80.7357   65.5919   39.5168 Y2         2 LUT      0.025142
    171 C32        79.4809   65.0889   39.6949 Y3         2 LUT     -0.212209
    172 C33        78.5642   65.1743   40.7584 Y4         2 LUT      0.240937
    173 C34        77.3863   64.4632   40.8951 Y5         2 LUT     -0.218862
    174 C35        76.2734   64.4642   41.8489 Y6         2 LUT     -0.023547
    175 C36        87.6330   65.6573   36.1370 Y7         2 LUT     -0.393485
    176 C37        86.4360   63.6376   36.6961 Y7         2 LUT     -0.393485
    177 C38        83.7603   66.3494   33.2697 Y9         2 LUT     -0.387526
    178 C39        83.2651   67.1430   38.7128 W1         2 LUT     -0.322618
    179 C40        78.9118   66.2318   41.8272 W2         2 LUT     -0.358472
    180 H403       79.4237   67.0948   41.4727 R7         2 LUT      0.097720
    181 H402       77.9575   66.5228   42.2626 R7         2 LUT      0.097720
    182 H401       79.4353   65.8493   42.6664 R7         2 LUT      0.097720
    183 H393       84.2630   66.7723   39.0066 R4         2 LUT      0.082505
    184 H392       83.3970   68.0145   38.0749 R4         2 LUT      0.082505
    185 H391       82.6187   67.4079   39.5580 R4         2 LUT      0.082505
    186 H383       83.5387   66.2337   32.2433 R1         2 LUT      0.104030
    187 H382       82.8759   65.8531   33.7226 R1         2 LUT      0.104030
    188 H381       83.8690   67.4284   33.3935 R1         2 LUT      0.104030
    189 H373       86.0219   64.0378   37.6229 T4         2 LUT      0.089537
    190 H372       85.9379   62.6707   36.5143 T4         2 LUT      0.089537
    191 H371       87.4581   63.3200   36.9933 T4         2 LUT      0.089537
    192 H363       88.5662   65.1705   36.4625 T4         2 LUT      0.089537
    193 H362       87.9718   66.4198   35.4949 T4         2 LUT      0.089537
    194 H361       87.1630   66.1607   36.9768 T4         2 LUT      0.089537
    195 H222       88.3657   63.8665   34.6264 U2         2 LUT      0.127376
    196 H221       86.8446   62.9714   34.1663 U2         2 LUT      0.127376
    197 H203       72.8188   62.5747   40.2777 R7         2 LUT      0.087068
    198 H202       72.4242   61.3699   41.4042 R7         2 LUT      0.087068
    199 H201       71.2377   62.6323   41.0912 R7         2 LUT      0.087068
    200 H193       68.9890   59.4700   45.5241 R4         2 LUT      0.089716
    201 H192       67.7281   60.5356   44.7554 R4         2 LUT      0.089716
    202 H191       69.2004   60.3888   43.9210 R4         2 LUT      0.089716
    203 H183       66.2313   64.7990   48.0659 R1         2 LUT      0.094572
    204 H182       65.8885   63.4642   47.0187 R1         2 LUT      0.094572
    205 H181       64.7095   64.2226   48.1167 R1         2 LUT      0.094572
    206 H173       69.7751   61.6149   50.5508 T4         2 LUT      0.093752
    207 H172       68.6985   62.8622   51.1328 T4         2 LUT      0.093752
    208 H171       68.9542   61.3561   52.0953 T4         2 LUT      0.093752
    209 H163       68.4359   59.3216   50.9072 T4         2 LUT      0.093752
    210 H162       67.4022   59.1482   49.4282 T4         2 LUT      0.093752
    211 H161       69.1224   59.7470   49.4297 T4         2 LUT      0.093752
    212 HO3        65.7442   63.1380   53.4479 Q1         2 LUT      0.300121
    213 H8         69.5970   62.5214   47.7444 U7         2 LUT      0.080784
    214 H7         66.9761   61.2390   46.9056 U6         2 LUT      0.042190
    215 H42        64.4890   63.5627   50.4025 U5         2 LUT      0.145166
    216 H41        66.0391   64.2910   50.8272 U5         2 LUT      0.145166
    217 H35        76.2880   65.0356   42.7540 T3         2 LUT      0.077919
    218 H34        77.2574   63.8635   40.0124 T2         2 LUT      0.073626
    219 H32        79.1748   64.4363   38.8375 T1         2 LUT      0.092510
    220 H31        81.0063   66.2747   40.3069 U9         2 LUT      0.070048
    221 H30        80.9378   64.8458   37.5529 U8         2 LUT      0.085442
    222 H3         64.6918   62.0141   51.8475 U3         2 LUT     -0.031596
    223 H28        82.6597   64.8335   36.0084 U7         2 LUT      0.084728
    224 H27        84.9540   66.7413   36.4597 U6         2 LUT      0.087291
    225 H26        84.6123   64.1436   35.0864 Q6         2 LUT      0.075325
    226 H24        85.9710   65.8057   31.6804 Q5         2 LUT      0.094482
    227 H23        88.2067   65.5096   33.2390 U3         2 LUT     -0.024869
    228 H22        65.7011   60.4818   50.6095 U2         2 LUT      0.127376
    229 H21        66.6898   60.4454   52.0474 U2         2 LUT      0.127376
    230 H15        74.9095   63.2122   40.7203 T3         2 LUT      0.093200
    231 H14        74.2842   64.2909   43.4985 T2         2 LUT      0.068865
    232 H12        72.2092   63.8832   44.3199 T1         2 LUT      0.095507
    233 H11        70.5503   61.7047   43.0860 U9         2 LUT      0.068930
    234 H10        70.5125   63.3792   45.7948 U8         2 LUT      0.083911
    235 H1         88.0744   64.1065   31.2527 Q1         2 LUT      0.297311
@<TRIPOS>BOND
    1     6     1 1
    2     7     2 1
    3     8     3 1
    4     9     4 1
    5    11     4 1
    6    12     6 1
    7    13     9 1
    8    16     9 1
    9    25     5 1
   10    25    16 1
   11    26    10 1
   12    26    17 1
   13    27    18 1
   14    28    14 1
   15    28    19 1
   16    29    12 1
   17    30    13 1
   18    31    24 1
   19    32     1 1
   20    32    25 1
   21    33    21 1
   22    33    26 1
   23    34    22 1
   24    34    27 1
   25    35    23 1
   26    35    28 1
   27    36    12 1
   28    36    24 1
   29    37    13 1
   30    37    15 1
   31    38    31 1
   32    39    20 1
   33    39    32 1
   34    40     2 1
   35    40    33 1
   36    41     3 1
   37    41    34 1
   38    42     4 1
   39    42    35 1
   40    43    38 1
   41    44     5 1
   42    44    17 1
   43    44    39 1
   44    45    10 1
   45    45    18 1
   46    45    40 1
   47    46    19 1
   48    46    41 1
   49    47    14 1
   50    47    16 1
   51    47    42 1
   52    48    38 1
   53    49    48 1
   54    50    49 1
   55    51    50 1
   56    52    51 1
   57    53    51 1
   58    54    53 1
   59    55    54 1
   60    56    55 1
   61    57    56 1
   62    58    56 1
   63    59    58 1
   64    60    59 1
   65    61    60 1
   66    62    61 1
   67    63    61 1
   68    64    27 1
   69    64    46 1
   70    65     5 1
   71    65    10 1
   72    65    64 1
   73    65    14 1
   74    66    23 1
   75    67    23 1
   76    68    23 1
   77    69    22 1
   78    70    22 1
   79    71    22 1
   80    72    21 1
   81    73    21 1
   82    74    21 1
   83    75    20 1
   84    76    20 1
   85    77    20 1
   86    78    15 1
   87    79    15 1
   88    80    15 1
   89    81     8 1
   90    82     8 1
   91    83     8 1
   92    84     7 1
   93    85     7 1
   94    86     6 1
   95    87     6 1
   96    88     3 1
   97    89     3 1
   98    90     1 1
   99    91     1 1
  100    92    63 1
  101    93    63 1
  102    94    63 1
  103    95    62 1
  104    96    62 1
  105    97    62 1
  106    98    60 1
  107    99    60 1
  108   100    59 1
  109   101    59 1
  110   102    58 1
  111   103    58 1
  112   104    57 1
  113   105    57 1
  114   106    57 1
  115   107    55 1
  116   108    55 1
  117   109    54 1
  118   110    54 1
  119   111    53 1
  120   112    53 1
  121   113    19 1
  122   114    18 1
  123   115    17 1
  124   116     9 1
  125   117     2 1
  126   118    52 1
  127   119    52 1
  128   120    52 1
  129   121    51 1
  130   122    50 1
  131   123    50 1
  132   124    49 1
  133   125    49 1
  134   126    48 1
  135   127    48 1
  136   128    43 1
  137   129    43 1
  138   130    43 1
  139   131    39 1
  140   132    32 1
  141   133    31 1
  142   134    61 1
  143   135    56 1
  144   136    24 1
  145   137    24 1
  146   139   138 1
  147   140   139 1
  148   141   140 1
  149   142   140 1
  150   143   142 1
  151   144   138 1
  152   144   143 1
  153   145   144 1
  154   146   145 1
  155   147   146 1
  156   148   147 1
  157   149   148 1
  158   150   149 1
  159   151   150 1
  160   152   151 1
  161   153   152 1
  162   154   138 1
  163   155   138 1
  164   156   143 1
  165   157   147 1
  166   158   151 1
  167   160   159 1
  168   161   160 1
  169   162   161 1
  170   163   161 1
  171   164   163 1
  172   165   159 1
  173   165   164 1
  174   166   165 1
  175   167   166 1
  176   168   167 1
  177   169   168 1
  178   170   169 1
  179   171   170 1
  180   172   171 1
  181   173   172 1
  182   174   153 1
  183   174   173 1
  184   175   159 1
  185   176   159 1
  186   177   164 1
  187   178   168 1
  188   179   172 1
  189   180   179 1
  190   181   179 1
  191   182   179 1
  192   183   178 1
  193   184   178 1
  194   185   178 1
  195   186   177 1
  196   187   177 1
  197   188   177 1
  198   189   176 1
  199   190   176 1
  200   191   176 1
  201   192   175 1
  202   193   175 1
  203   194   175 1
  204   195   160 1
  205   196   160 1
  206   197   158 1
  207   198   158 1
  208   199   158 1
  209   200   157 1
  210   201   157 1
  211   202   157 1
  212   203   156 1
  213   204   156 1
  214   205   156 1
  215   206   155 1
  216   207   155 1
  217   208   155 1
  218   209   154 1
  219   210   154 1
  220   211   154 1
  221   212   141 1
  222   213   146 1
  223   214   145 1
  224   215   142 1
  225   216   142 1
  226   217   174 1
  227   218   173 1
  228   219   171 1
  229   220   170 1
  230   221   169 1
  231   222   140 1
  232   223   167 1
  233   224   166 1
  234   225   165 1
  235   226   163 1
  236   227   161 1
  237   228   139 1
  238   229   139 1
  239   230   153 1
  240   231   152 1
  241   232   150 1
  242   233   149 1
  243   234   148 1
  244   235   162 1
  245   65    153 1
  246   65    174 1
@<TRIPOS>SUBSTRUCTURE
      1 CLA               1 ****               0 ****  **** 
      2 LUT             138 ****               0 ****  **** 
