@<TRIPOS>MOLECULE
Cpptraj generated mol2 file.
  235   246     2     0     0
SMALL
USER_CHARGES


@<TRIPOS>ATOM
      1 CAA        77.9382   59.4404   35.3775 a2         1 CLA     -0.055900
      2 CAB        77.4241   62.7702   44.5152 c8         1 CLA     -0.148500
      3 CAC        70.6559   58.1546   43.5341 a2         1 CLA     -0.012600
      4 CAD        73.7744   56.6620   36.1796 ck         1 CLA      0.398800
      5 NA         76.7589   59.4437   38.7721 ns         1 CLA     -0.225500
      6 CBA        79.1571   59.3852   34.5213 a2         1 CLA     -0.135000
      7 CBB        76.3778   63.0380   45.3038 c0         1 CLA     -0.395200
      8 CBC        70.6614   56.5949   43.3901 a3         1 CLA     -0.037700
      9 CBD        75.2209   57.3581   35.9123 a1         1 CLA     -0.053900
     10 NB         76.4218   60.7747   41.4729 nm         1 CLA     -0.295700
     11 OBD        73.2712   55.9507   35.3153 o2         1 CLA     -0.494600
     12 CGA        79.6218   58.0205   33.9809 c4         1 CLA      0.827000
     13 CGD        76.1508   56.1893   35.6461 c4         1 CLA      0.655300
     14 ND         73.9610   58.4254   39.1727 nm         1 CLA     -0.291600
     15 CED        77.3796   54.2411   36.4947 a3         1 CLA      0.005400
     16 CHA        75.4569   58.1582   37.1649 cs         1 CLA     -0.123800
     17 CHB        78.3919   60.8271   40.0069 aa         1 CLA     -0.291900
     18 CHC        75.1439   60.6049   43.5256 aa         1 CLA     -0.090400
     19 CHD        72.0503   58.2880   40.6455 aa         1 CLA     -0.052000
     20 CMA        80.1506   58.8197   38.3723 a3         1 CLA     -0.230700
     21 CMB        79.5292   62.8658   42.3307 a3         1 CLA     -0.180800
     22 CMC        72.7173   59.9867   45.3590 a3         1 CLA     -0.134000
     23 CMD        70.9135   56.6105   38.2513 a3         1 CLA     -0.141100
     24 C1         81.1100   56.1685   34.4425 a2         1 CLA      0.023000
     25 C1A        76.6322   58.8258   37.5174 ac         1 CLA     -0.015100
     26 C1B        77.7432   61.1405   41.1807 cr         1 CLA      0.054700
     27 C1C        73.9965   59.9597   43.1273 cn         1 CLA     -0.005600
     28 C1D        72.6928   58.0107   39.4499 ap         1 CLA     -0.047300
     29 O1A        79.5771   57.7149   32.7884 o2         1 CLA     -0.610800
     30 O1D        76.6911   56.0480   34.5691 o2         1 CLA     -0.558200
     31 C2         81.5982   55.3767   35.6344 c8         1 CLA     -0.325100
     32 C2A        78.0425   58.9062   36.8504 a1         1 CLA      0.098600
     33 C2B        78.2084   62.0415   42.2297 cb         1 CLA      0.088500
     34 C2C        72.8851   59.5423   43.9627 cb         1 CLA      0.053700
     35 C2D        72.2187   57.2064   38.3636 cb         1 CLA      0.058900
     36 O2A        80.2576   57.2353   34.9968 o1         1 CLA     -0.437200
     37 O2D        76.3937   55.3434   36.6751 o1         1 CLA     -0.357600
     38 C3         82.8800   55.3634   36.0633 c5         1 CLA      0.031200
     39 C3A        78.9294   59.6861   37.8377 a1         1 CLA      0.166800
     40 C3B        77.2865   61.9972   43.2508 cb         1 CLA      0.035000
     41 C3C        71.9923   58.8335   43.1173 cb         1 CLA     -0.089900
     42 C3D        73.2476   57.2058   37.4433 cb         1 CLA     -0.035900
     43 C4         83.8898   54.5193   35.3951 a3         1 CLA     -0.053300
     44 C4A        77.9686   60.0517   38.9024 ac         1 CLA      0.001800
     45 C4B        76.2980   60.9841   42.8161 cn         1 CLA     -0.020900
     46 C4C        72.5797   58.8520   41.7840 cr         1 CLA     -0.044400
     47 C4D        74.2787   58.0077   37.9640 c6         1 CLA     -0.046000
     48 C5         83.3828   56.5150   36.9592 a2         1 CLA     -0.070400
     49 C6         84.1432   56.0574   38.1870 a2         1 CLA      0.043900
     50 C7         84.0044   56.9805   39.3789 a2         1 CLA     -0.150000
     51 C8         84.2381   58.4901   39.2460 a1         1 CLA      0.064200
     52 C9         85.5267   58.9896   38.5061 a3         1 CLA     -0.259300
     53 C10        84.1451   59.1899   40.6666 a2         1 CLA     -0.071900
     54 C11        82.9089   58.7788   41.5738 a2         1 CLA      0.014500
     55 C12        82.5537   59.8096   42.6254 a2         1 CLA     -0.112100
     56 C13        83.6147   60.0303   43.7679 a1         1 CLA      0.089200
     57 C14        83.7279   58.9075   44.8089 a3         1 CLA     -0.239100
     58 C15        83.2003   61.3440   44.6419 a2         1 CLA     -0.102200
     59 C16        84.3113   62.1194   45.4979 a2         1 CLA      0.023900
     60 C17        83.8245   63.5079   46.0615 a2         1 CLA     -0.105700
     61 C18        83.2100   63.5802   47.4991 a1         1 CLA      0.206800
     62 C19        83.0835   65.0653   48.0404 a3         1 CLA     -0.280100
     63 C20        81.7984   62.9314   47.7166 a3         1 CLA     -0.280100
     64 NC         73.8171   59.5286   41.8198 nx         1 CLA     -0.309200
     65 MG         75.2272   59.6187   40.4094 mg         1 CLA      0.895000
     66 HMD3       70.2781   57.3925   37.8677 dc         1 CLA      0.064300
     67 HMD2       70.9055   55.6694   37.6388 dc         1 CLA      0.064300
     68 HMD1       70.3696   56.3654   39.1884 dc         1 CLA      0.064300
     69 HMC3       73.4264   59.4290   45.9168 dc         1 CLA      0.052100
     70 HMC2       72.8575   61.0510   45.5438 dc         1 CLA      0.052100
     71 HMC1       71.7278   59.7462   45.7747 dc         1 CLA      0.052100
     72 HMB3       79.1870   63.7824   42.7949 dc         1 CLA      0.063600
     73 HMB2       80.2030   62.2181   42.9041 dc         1 CLA      0.063600
     74 HMB1       79.8942   63.0315   41.3527 dc         1 CLA      0.063600
     75 HMA3       79.9526   58.0058   39.1500 dc         1 CLA      0.058300
     76 HMA2       80.7760   58.4200   37.5702 dc         1 CLA      0.058300
     77 HMA1       80.8177   59.6017   38.7073 dc         1 CLA      0.058300
     78 HED3       76.9504   53.5699   35.7440 dc         1 CLA      0.079300
     79 HED2       78.2898   54.6295   36.0828 dc         1 CLA      0.079300
     80 HED1       77.6256   53.7286   37.3744 dc         1 CLA      0.079300
     81 HBC3       69.8841   56.2899   43.9838 dc         1 CLA      0.016300
     82 HBC2       70.6520   56.2944   42.3512 dc         1 CLA      0.016300
     83 HBC1       71.6138   56.3301   43.8816 dc         1 CLA      0.016300
     84 HBB2       76.4474   63.6834   46.2047 da         1 CLA      0.183000
     85 HBB1       75.3627   62.7816   45.0236 da         1 CLA      0.183000
     86 HBA2       79.0343   60.0207   33.6651 dc         1 CLA      0.029400
     87 HBA1       80.0595   59.6629   35.0818 dc         1 CLA      0.029400
     88 HAC2       70.3881   58.4437   44.5721 dc         1 CLA      0.029300
     89 HAC1       69.8200   58.4353   42.8939 dc         1 CLA      0.029300
     90 HAA2       77.1949   58.8608   34.7696 dc         1 CLA      0.028700
     91 HAA1       77.5500   60.4609   35.5526 dc         1 CLA      0.028700
     92 H203       81.9012   61.8311   47.7088 dc         1 CLA      0.065600
     93 H202       81.5278   63.1371   48.7036 dc         1 CLA      0.065600
     94 H201       80.9880   63.2702   47.0613 dc         1 CLA      0.065600
     95 H193       84.0129   65.5467   48.2434 dc         1 CLA      0.065600
     96 H192       82.5440   65.7549   47.4005 dc         1 CLA      0.065600
     97 H191       82.4933   65.1545   48.9534 dc         1 CLA      0.065600
     98 H172       84.6852   64.1973   46.0507 dc         1 CLA      0.027600
     99 H171       83.0710   63.8959   45.3909 dc         1 CLA      0.027600
    100 H162       84.5655   61.3809   46.2924 dc         1 CLA      0.002900
    101 H161       85.1742   62.1366   44.7849 dc         1 CLA      0.002900
    102 H152       82.8488   62.1659   43.9743 dc         1 CLA      0.029100
    103 H151       82.4397   61.0447   45.3365 dc         1 CLA      0.029100
    104 H143       84.5908   58.9824   45.4143 dc         1 CLA      0.063600
    105 H142       82.8204   58.7668   45.4602 dc         1 CLA      0.063600
    106 H141       83.8458   57.9757   44.3632 dc         1 CLA      0.063600
    107 H122       82.3965   60.7210   42.0660 dc         1 CLA      0.032500
    108 H121       81.6419   59.4589   43.1042 dc         1 CLA      0.032500
    109 H112       81.9988   58.6616   40.9963 dc         1 CLA      0.006600
    110 H111       83.2412   57.8682   41.9538 dc         1 CLA      0.006600
    111 H102       85.0318   59.1275   41.2766 dc         1 CLA      0.024100
    112 H101       84.0521   60.2378   40.3683 dc         1 CLA      0.024100
    113 HHD        71.1889   57.7752   40.7376 da         1 CLA      0.174300
    114 HHC        75.0221   60.8625   44.5584 da         1 CLA      0.136800
    115 HHB        79.3828   61.1404   39.9634 da         1 CLA      0.138300
    116 HBD        75.0944   57.9422   35.0468 dc         1 CLA      0.107700
    117 HAB        78.3841   63.1646   44.8058 da         1 CLA      0.155200
    118 H93        85.3422   59.9912   38.1767 dc         1 CLA      0.069500
    119 H92        86.2921   59.0659   39.2470 dc         1 CLA      0.069500
    120 H91        85.8718   58.3282   37.7008 dc         1 CLA      0.069500
    121 H8         83.4253   58.8219   38.5982 dc         1 CLA      0.029300
    122 H72        83.0307   56.8261   39.7563 dc         1 CLA      0.044400
    123 H71        84.6674   56.5907   40.1374 dc         1 CLA      0.044400
    124 H62        83.8977   55.0497   38.5091 dc         1 CLA      0.015600
    125 H61        85.1987   56.0632   37.9343 dc         1 CLA      0.015600
    126 H52        84.0542   57.1602   36.3651 dc         1 CLA      0.033200
    127 H51        82.4951   57.0241   37.3740 dc         1 CLA      0.033200
    128 H43        84.5527   54.1563   36.1941 dc         1 CLA      0.037000
    129 H42        83.4553   53.6579   34.8557 dc         1 CLA      0.037000
    130 H41        84.4053   55.2463   34.7009 dc         1 CLA      0.037000
    131 H3A        79.2981   60.5966   37.3824 dc         1 CLA      0.041100
    132 H2A        78.3741   57.9031   36.6709 dc         1 CLA      0.083100
    133 H2         80.8637   54.7927   36.1970 da         1 CLA      0.180900
    134 H18        83.7617   63.1033   48.2889 dc         1 CLA     -0.003900
    135 H13        84.6101   60.2284   43.3524 dc         1 CLA      0.019700
    136 H12        80.6396   55.4668   33.7646 dc         1 CLA      0.120400
    137 H11        81.9450   56.5689   33.9089 dc         1 CLA      0.120400
    138 C1         67.3099   61.5160   50.5147 Z1         2 LUT      0.509236
    139 C2         67.2382   62.6529   51.5702 Z2         2 LUT     -0.434695
    140 C3         66.1026   63.5851   51.5176 Z3         2 LUT      0.437453
    141 O3         66.5255   64.9348   51.7932 S1         2 LUT     -0.547129
    142 C4         65.3968   63.5601   50.1930 Z4         2 LUT     -0.468603
    143 C5         66.1555   63.0323   48.9937 Z5         2 LUT      0.279246
    144 C6         67.0494   61.9948   49.1473 Z6         2 LUT     -0.305473
    145 C7         68.0449   61.7753   48.1120 Z7         2 LUT      0.069402
    146 C8         68.7067   62.6088   47.2728 Z8         2 LUT     -0.191631
    147 C9         69.4636   62.2197   46.0985 Z9         2 LUT      0.196698
    148 C10        70.4415   63.1428   45.6100 Y1         2 LUT     -0.208611
    149 C11        71.2347   63.1653   44.3810 Y2         2 LUT      0.030784
    150 C12        72.3889   63.8515   44.1467 Y3         2 LUT     -0.220316
    151 C13        73.1050   63.9027   42.8573 Y4         2 LUT      0.215937
    152 C14        74.3198   64.5929   42.8655 Y5         2 LUT     -0.185793
    153 C15        75.3121   64.7940   41.8176 Y6         2 LUT     -0.057835
    154 C16        66.2812   60.4379   50.9847 Y7         2 LUT     -0.405615
    155 C17        68.7063   60.7445   50.7031 Y7         2 LUT     -0.405615
    156 C18        65.9056   63.9340   47.7961 Y9         2 LUT     -0.369639
    157 C19        69.0450   60.9533   45.2858 W1         2 LUT     -0.333362
    158 C20        72.5982   63.1375   41.5652 W2         2 LUT     -0.323439
    159 C21        86.6474   65.7362   35.5174 Z1         2 LUT      0.406104
    160 C22        87.0497   65.1492   34.1688 Z2         2 LUT     -0.404965
    161 C23        87.2626   66.0992   33.0272 Z3         2 LUT      0.391255
    162 O23        87.6872   65.4088   31.7949 S1         2 LUT     -0.528210
    163 C24        86.1346   67.1219   33.0299 W6         2 LUT     -0.258361
    164 C25        85.1637   67.2131   33.9946 Z5         2 LUT      0.133546
    165 C26        85.2689   66.3824   35.2237 W8         2 LUT     -0.147008
    166 C27        84.6297   67.0789   36.4451 Z7         2 LUT      0.023843
    167 C28        83.3098   67.0481   36.7444 Z8         2 LUT     -0.216987
    168 C29        82.6294   67.5679   37.9672 Z9         2 LUT      0.206524
    169 C30        81.4445   67.0041   38.3777 Y1         2 LUT     -0.215556
    170 C31        80.7558   67.2101   39.6250 Y2         2 LUT      0.025142
    171 C32        79.6597   66.4046   39.9940 Y3         2 LUT     -0.212209
    172 C33        78.8129   66.3346   41.1008 Y4         2 LUT      0.240937
    173 C34        77.6099   65.5659   40.9441 Y5         2 LUT     -0.218862
    174 C35        76.5245   65.4049   41.9316 Y6         2 LUT     -0.023547
    175 C36        87.8385   66.5840   36.1735 Y7         2 LUT     -0.393485
    176 C37        86.4125   64.4436   36.3849 Y7         2 LUT     -0.393485
    177 C38        84.0433   68.2269   33.7422 Y9         2 LUT     -0.387526
    178 C39        83.3791   68.6675   38.7386 W1         2 LUT     -0.322618
    179 C40        79.1873   67.3138   42.2261 W2         2 LUT     -0.358472
    180 H403       78.9735   68.3615   41.9247 R7         2 LUT      0.097720
    181 H402       78.6453   67.2438   43.1591 R7         2 LUT      0.097720
    182 H401       80.2356   67.2575   42.5465 R7         2 LUT      0.097720
    183 H393       83.5847   69.6299   38.1610 R4         2 LUT      0.082505
    184 H392       83.0439   69.1112   39.6725 R4         2 LUT      0.082505
    185 H391       84.3835   68.1707   38.9165 R4         2 LUT      0.082505
    186 H383       83.2012   67.7813   33.2041 R1         2 LUT      0.104030
    187 H382       83.7584   68.7332   34.6869 R1         2 LUT      0.104030
    188 H381       84.3851   68.9819   33.1071 R1         2 LUT      0.104030
    189 H373       87.2635   63.8157   36.5799 T4         2 LUT      0.089537
    190 H372       86.0563   64.7702   37.4284 T4         2 LUT      0.089537
    191 H371       85.5465   63.8128   36.0234 T4         2 LUT      0.089537
    192 H363       88.8422   66.0760   35.9605 T4         2 LUT      0.089537
    193 H362       87.8494   67.6067   35.6994 T4         2 LUT      0.089537
    194 H361       87.7689   66.6485   37.2332 T4         2 LUT      0.089537
    195 H222       88.0355   64.6103   34.4220 U2         2 LUT      0.127376
    196 H221       86.4323   64.3985   33.7049 U2         2 LUT      0.127376
    197 H203       71.5442   63.0849   41.5916 R7         2 LUT      0.087068
    198 H202       73.0706   63.5309   40.6288 R7         2 LUT      0.087068
    199 H201       72.8195   62.0479   41.6095 R7         2 LUT      0.087068
    200 H193       69.3665   59.9455   45.6601 R4         2 LUT      0.089716
    201 H192       67.9855   60.7999   45.2764 R4         2 LUT      0.089716
    202 H191       69.3771   61.0341   44.3196 R4         2 LUT      0.089716
    203 H183       65.9295   63.3949   46.9007 R1         2 LUT      0.094572
    204 H182       65.0041   64.4791   47.9318 R1         2 LUT      0.094572
    205 H181       66.6693   64.7464   47.7712 R1         2 LUT      0.094572
    206 H173       69.5558   61.4003   50.5461 T4         2 LUT      0.093752
    207 H172       68.7914   60.2654   51.6739 T4         2 LUT      0.093752
    208 H171       68.7470   59.9769   49.9034 T4         2 LUT      0.093752
    209 H163       66.2385   59.6223   50.3147 T4         2 LUT      0.093752
    210 H162       66.3794   60.0571   52.0288 T4         2 LUT      0.093752
    211 H161       65.2775   60.8779   50.9950 T4         2 LUT      0.093752
    212 HO3        65.9361   65.3393   52.4534 Q1         2 LUT      0.300121
    213 H8         68.6268   63.6464   47.3535 U7         2 LUT      0.080784
    214 H7         68.2309   60.7812   47.8891 U6         2 LUT      0.042190
    215 H42        64.5100   62.9241   50.3195 U5         2 LUT      0.145166
    216 H41        64.9413   64.5312   50.1140 U5         2 LUT      0.145166
    217 H35        76.8442   65.8664   42.8197 T3         2 LUT      0.077919
    218 H34        77.4027   65.0743   39.9561 T2         2 LUT      0.073626
    219 H32        79.4659   65.7037   39.2041 T1         2 LUT      0.092510
    220 H31        81.1103   67.9057   40.3789 U9         2 LUT      0.070048
    221 H30        81.0596   66.2788   37.6623 U8         2 LUT      0.085442
    222 H3         65.3775   63.1724   52.3758 U3         2 LUT     -0.031596
    223 H28        82.7042   66.5801   35.9085 U7         2 LUT      0.084728
    224 H27        85.3011   67.6222   37.1068 U6         2 LUT      0.087291
    225 H26        84.5111   65.6909   34.7733 Q6         2 LUT      0.075325
    226 H24        86.1324   67.8398   32.1899 Q5         2 LUT      0.094482
    227 H23        88.2187   66.6800   33.1931 U3         2 LUT     -0.024869
    228 H22        67.4089   62.3517   52.6047 U2         2 LUT      0.127376
    229 H21        68.0942   63.2811   51.3569 U2         2 LUT      0.127376
    230 H15        75.2508   64.4054   40.8210 T3         2 LUT      0.093200
    231 H14        74.4668   65.2066   43.7269 T2         2 LUT      0.068865
    232 H12        72.7700   64.5383   44.9534 T1         2 LUT      0.095507
    233 H11        70.8228   62.6043   43.5513 U9         2 LUT      0.068930
    234 H10        70.7000   64.0319   46.1827 U8         2 LUT      0.083911
    235 H1         86.8850   65.0483   31.3973 Q1         2 LUT      0.297311
@<TRIPOS>BOND
    1     6     1 1
    2     7     2 1
    3     8     3 1
    4     9     4 1
    5    11     4 1
    6    12     6 1
    7    13     9 1
    8    16     9 1
    9    25     5 1
   10    25    16 1
   11    26    10 1
   12    26    17 1
   13    27    18 1
   14    28    14 1
   15    28    19 1
   16    29    12 1
   17    30    13 1
   18    31    24 1
   19    32     1 1
   20    32    25 1
   21    33    21 1
   22    33    26 1
   23    34    22 1
   24    34    27 1
   25    35    23 1
   26    35    28 1
   27    36    12 1
   28    36    24 1
   29    37    13 1
   30    37    15 1
   31    38    31 1
   32    39    20 1
   33    39    32 1
   34    40     2 1
   35    40    33 1
   36    41     3 1
   37    41    34 1
   38    42     4 1
   39    42    35 1
   40    43    38 1
   41    44     5 1
   42    44    17 1
   43    44    39 1
   44    45    10 1
   45    45    18 1
   46    45    40 1
   47    46    19 1
   48    46    41 1
   49    47    14 1
   50    47    16 1
   51    47    42 1
   52    48    38 1
   53    49    48 1
   54    50    49 1
   55    51    50 1
   56    52    51 1
   57    53    51 1
   58    54    53 1
   59    55    54 1
   60    56    55 1
   61    57    56 1
   62    58    56 1
   63    59    58 1
   64    60    59 1
   65    61    60 1
   66    62    61 1
   67    63    61 1
   68    64    27 1
   69    64    46 1
   70    65     5 1
   71    65    10 1
   72    65    64 1
   73    65    14 1
   74    66    23 1
   75    67    23 1
   76    68    23 1
   77    69    22 1
   78    70    22 1
   79    71    22 1
   80    72    21 1
   81    73    21 1
   82    74    21 1
   83    75    20 1
   84    76    20 1
   85    77    20 1
   86    78    15 1
   87    79    15 1
   88    80    15 1
   89    81     8 1
   90    82     8 1
   91    83     8 1
   92    84     7 1
   93    85     7 1
   94    86     6 1
   95    87     6 1
   96    88     3 1
   97    89     3 1
   98    90     1 1
   99    91     1 1
  100    92    63 1
  101    93    63 1
  102    94    63 1
  103    95    62 1
  104    96    62 1
  105    97    62 1
  106    98    60 1
  107    99    60 1
  108   100    59 1
  109   101    59 1
  110   102    58 1
  111   103    58 1
  112   104    57 1
  113   105    57 1
  114   106    57 1
  115   107    55 1
  116   108    55 1
  117   109    54 1
  118   110    54 1
  119   111    53 1
  120   112    53 1
  121   113    19 1
  122   114    18 1
  123   115    17 1
  124   116     9 1
  125   117     2 1
  126   118    52 1
  127   119    52 1
  128   120    52 1
  129   121    51 1
  130   122    50 1
  131   123    50 1
  132   124    49 1
  133   125    49 1
  134   126    48 1
  135   127    48 1
  136   128    43 1
  137   129    43 1
  138   130    43 1
  139   131    39 1
  140   132    32 1
  141   133    31 1
  142   134    61 1
  143   135    56 1
  144   136    24 1
  145   137    24 1
  146   139   138 1
  147   140   139 1
  148   141   140 1
  149   142   140 1
  150   143   142 1
  151   144   138 1
  152   144   143 1
  153   145   144 1
  154   146   145 1
  155   147   146 1
  156   148   147 1
  157   149   148 1
  158   150   149 1
  159   151   150 1
  160   152   151 1
  161   153   152 1
  162   154   138 1
  163   155   138 1
  164   156   143 1
  165   157   147 1
  166   158   151 1
  167   160   159 1
  168   161   160 1
  169   162   161 1
  170   163   161 1
  171   164   163 1
  172   165   159 1
  173   165   164 1
  174   166   165 1
  175   167   166 1
  176   168   167 1
  177   169   168 1
  178   170   169 1
  179   171   170 1
  180   172   171 1
  181   173   172 1
  182   174   153 1
  183   174   173 1
  184   175   159 1
  185   176   159 1
  186   177   164 1
  187   178   168 1
  188   179   172 1
  189   180   179 1
  190   181   179 1
  191   182   179 1
  192   183   178 1
  193   184   178 1
  194   185   178 1
  195   186   177 1
  196   187   177 1
  197   188   177 1
  198   189   176 1
  199   190   176 1
  200   191   176 1
  201   192   175 1
  202   193   175 1
  203   194   175 1
  204   195   160 1
  205   196   160 1
  206   197   158 1
  207   198   158 1
  208   199   158 1
  209   200   157 1
  210   201   157 1
  211   202   157 1
  212   203   156 1
  213   204   156 1
  214   205   156 1
  215   206   155 1
  216   207   155 1
  217   208   155 1
  218   209   154 1
  219   210   154 1
  220   211   154 1
  221   212   141 1
  222   213   146 1
  223   214   145 1
  224   215   142 1
  225   216   142 1
  226   217   174 1
  227   218   173 1
  228   219   171 1
  229   220   170 1
  230   221   169 1
  231   222   140 1
  232   223   167 1
  233   224   166 1
  234   225   165 1
  235   226   163 1
  236   227   161 1
  237   228   139 1
  238   229   139 1
  239   230   153 1
  240   231   152 1
  241   232   150 1
  242   233   149 1
  243   234   148 1
  244   235   162 1
  245   65    153 1
  246   65    174 1
@<TRIPOS>SUBSTRUCTURE
      1 CLA               1 ****               0 ****  **** 
      2 LUT             138 ****               0 ****  **** 
