@<TRIPOS>MOLECULE
Cpptraj generated mol2 file.
  235   246     2     0     0
SMALL
USER_CHARGES


@<TRIPOS>ATOM
      1 CAA        79.6349   57.8869   34.5988 a2         1 CLA     -0.055900
      2 CAB        79.6140   62.1655   43.1769 c8         1 CLA     -0.148500
      3 CAC        72.8741   57.9109   43.2022 a2         1 CLA     -0.012600
      4 CAD        75.3861   55.2797   35.7551 ck         1 CLA      0.398800
      5 NA         78.6127   58.3483   37.8985 ns         1 CLA     -0.225500
      6 CBA        80.8513   57.6536   33.6109 a2         1 CLA     -0.135000
      7 CBB        80.7740   62.2380   43.8761 c0         1 CLA     -0.395200
      8 CBC        72.9176   56.4146   43.1561 a3         1 CLA     -0.037700
      9 CBD        76.8609   55.8009   35.3823 a1         1 CLA     -0.053900
     10 NB         78.4595   59.8850   40.4791 nm         1 CLA     -0.295700
     11 OBD        74.7346   54.4068   35.1534 o2         1 CLA     -0.494600
     12 CGA        81.3377   56.2124   33.3661 c4         1 CLA      0.827000
     13 CGD        77.7832   54.5930   35.1290 c4         1 CLA      0.655300
     14 ND         75.7819   57.3454   38.5958 nm         1 CLA     -0.291600
     15 CED        78.3968   52.5718   36.2218 a3         1 CLA      0.005400
     16 CHA        77.2465   56.8307   36.5273 cs         1 CLA     -0.123800
     17 CHB        80.4435   59.6242   38.8857 aa         1 CLA     -0.291900
     18 CHC        77.1431   60.3674   42.3414 aa         1 CLA     -0.090400
     19 CHD        73.9499   57.2701   40.1964 aa         1 CLA     -0.052000
     20 CMA        81.8229   57.2015   37.4112 a3         1 CLA     -0.230700
     21 CMB        81.5217   61.9225   40.6783 a3         1 CLA     -0.180800
     22 CMC        74.8665   60.0493   44.5162 a3         1 CLA     -0.134000
     23 CMD        72.5768   55.4429   38.0697 a3         1 CLA     -0.141100
     24 C1         81.9939   54.1775   34.4705 a2         1 CLA      0.023000
     25 C1A        78.4030   57.5390   36.7483 ac         1 CLA     -0.015100
     26 C1B        79.7233   60.1840   39.9513 cr         1 CLA      0.054700
     27 C1C        76.0203   59.5691   42.0893 cn         1 CLA     -0.005600
     28 C1D        74.4664   56.8988   38.9465 ap         1 CLA     -0.047300
     29 O1A        81.0684   55.5845   32.3677 o2         1 CLA     -0.610800
     30 O1D        78.7150   54.4462   34.3309 o2         1 CLA     -0.558200
     31 C2         82.7786   53.7574   35.6652 c8         1 CLA     -0.325100
     32 C2A        79.7251   57.4337   36.0229 a1         1 CLA      0.098600
     33 C2B        80.2928   61.1774   40.8857 cb         1 CLA      0.088500
     34 C2C        74.9646   59.3904   43.1078 cb         1 CLA      0.053700
     35 C2D        73.9321   56.0852   37.9156 cb         1 CLA      0.058900
     36 O2A        81.9100   55.6352   34.4910 o1         1 CLA     -0.437200
     37 O2D        77.3744   53.5478   35.9446 o1         1 CLA     -0.357600
     38 C3         84.0838   53.4050   35.6266 c5         1 CLA      0.031200
     39 C3A        80.7966   58.1565   36.8254 a1         1 CLA      0.166800
     40 C3B        79.4196   61.3708   41.9479 cb         1 CLA      0.035000
     41 C3C        74.0566   58.4660   42.4742 cb         1 CLA     -0.089900
     42 C3D        74.9857   55.9876   36.9320 cb         1 CLA     -0.035900
     43 C4         84.5048   52.0418   34.9851 a3         1 CLA     -0.053300
     44 C4A        79.9073   58.8263   37.8848 ac         1 CLA      0.001800
     45 C4B        78.2759   60.5616   41.6204 cn         1 CLA     -0.020900
     46 C4C        74.5869   58.1270   41.1565 cr         1 CLA     -0.044400
     47 C4D        76.0863   56.7818   37.3992 c6         1 CLA     -0.046000
     48 C5         85.3004   54.2442   36.1253 a2         1 CLA     -0.070400
     49 C6         85.3513   54.6054   37.6127 a2         1 CLA      0.043900
     50 C7         86.5942   55.4217   37.9795 a2         1 CLA     -0.150000
     51 C8         86.6372   56.0746   39.3982 a1         1 CLA      0.064200
     52 C9         85.6949   57.3447   39.3579 a3         1 CLA     -0.259300
     53 C10        88.1404   56.5030   39.6950 a2         1 CLA     -0.071900
     54 C11        88.4781   57.1759   41.0577 a2         1 CLA      0.014500
     55 C12        88.2109   56.0844   42.1426 a2         1 CLA     -0.112100
     56 C13        88.8022   56.4040   43.5488 a1         1 CLA      0.089200
     57 C14        88.7941   55.2347   44.5184 a3         1 CLA     -0.239100
     58 C15        88.0862   57.6749   44.1590 a2         1 CLA     -0.102200
     59 C16        88.5110   58.0107   45.6478 a2         1 CLA      0.023900
     60 C17        87.9028   59.3236   46.0704 a2         1 CLA     -0.105700
     61 C18        86.3781   59.4806   46.1565 a1         1 CLA      0.206800
     62 C19        85.8167   58.4596   47.1556 a3         1 CLA     -0.280100
     63 C20        86.0823   60.9350   46.5612 a3         1 CLA     -0.280100
     64 NC         75.8468   58.7724   40.9822 nx         1 CLA     -0.309200
     65 MG         77.0624   58.6884   39.4280 mg         1 CLA      0.895000
     66 HMD3       72.4826   55.0321   39.1090 dc         1 CLA      0.064300
     67 HMD2       71.8270   56.2444   37.9210 dc         1 CLA      0.064300
     68 HMD1       72.3732   54.7054   37.3347 dc         1 CLA      0.064300
     69 HMC3       75.3354   61.0372   44.6010 dc         1 CLA      0.052100
     70 HMC2       73.8825   60.1424   44.8753 dc         1 CLA      0.052100
     71 HMC1       75.4073   59.3579   45.1601 dc         1 CLA      0.052100
     72 HMB3       82.3480   61.1478   40.8025 dc         1 CLA      0.063600
     73 HMB2       81.3999   62.2051   39.6087 dc         1 CLA      0.063600
     74 HMB1       81.6351   62.8613   41.2283 dc         1 CLA      0.063600
     75 HMA3       82.3273   57.6128   38.2763 dc         1 CLA      0.058300
     76 HMA2       81.2722   56.3116   37.6453 dc         1 CLA      0.058300
     77 HMA1       82.5820   56.9791   36.6338 dc         1 CLA      0.058300
     78 HED3       78.7869   52.0549   35.3401 dc         1 CLA      0.079300
     79 HED2       79.2026   53.0639   36.8552 dc         1 CLA      0.079300
     80 HED1       77.9373   51.8594   36.9091 dc         1 CLA      0.079300
     81 HBC3       72.2075   55.9790   43.8950 dc         1 CLA      0.016300
     82 HBC2       72.5792   56.0654   42.1999 dc         1 CLA      0.016300
     83 HBC1       73.9939   56.0667   43.3587 dc         1 CLA      0.016300
     84 HBB2       80.9293   62.6834   44.8628 da         1 CLA      0.183000
     85 HBB1       81.6378   61.7217   43.4165 da         1 CLA      0.183000
     86 HBA2       80.6894   58.0555   32.6137 dc         1 CLA      0.029400
     87 HBA1       81.8385   58.1234   33.9104 dc         1 CLA      0.029400
     88 HAC2       72.9229   58.1032   44.2623 dc         1 CLA      0.029300
     89 HAC1       71.9379   58.3375   42.8342 dc         1 CLA      0.029300
     90 HAA2       78.7062   57.5172   34.2421 dc         1 CLA      0.028700
     91 HAA1       79.4913   58.9539   34.5126 dc         1 CLA      0.028700
     92 H203       86.2947   61.1110   47.6217 dc         1 CLA      0.065600
     93 H202       86.6413   61.5743   45.8891 dc         1 CLA      0.065600
     94 H201       85.0500   61.2218   46.4563 dc         1 CLA      0.065600
     95 H193       86.0282   57.4831   46.8153 dc         1 CLA      0.065600
     96 H192       86.2913   58.7085   48.1082 dc         1 CLA      0.065600
     97 H191       84.7886   58.7682   47.0897 dc         1 CLA      0.065600
     98 H172       88.4548   59.6003   46.9469 dc         1 CLA      0.027600
     99 H171       88.2474   60.0475   45.3599 dc         1 CLA      0.027600
    100 H162       88.2520   57.3659   46.4822 dc         1 CLA      0.002900
    101 H161       89.5942   58.2497   45.6808 dc         1 CLA      0.002900
    102 H152       88.4067   58.5115   43.5601 dc         1 CLA      0.029100
    103 H151       87.0170   57.5078   44.0862 dc         1 CLA      0.029100
    104 H143       89.1725   54.3379   44.0874 dc         1 CLA      0.063600
    105 H142       89.5179   55.4502   45.4049 dc         1 CLA      0.063600
    106 H141       87.8190   55.1042   44.9477 dc         1 CLA      0.063600
    107 H122       87.1294   55.8178   42.2412 dc         1 CLA      0.032500
    108 H121       88.7308   55.1964   41.7485 dc         1 CLA      0.032500
    109 H112       89.6066   57.4056   41.0473 dc         1 CLA      0.006600
    110 H111       87.9199   58.1088   41.2066 dc         1 CLA      0.006600
    111 H102       88.8459   55.6851   39.6065 dc         1 CLA      0.024100
    112 H101       88.5229   57.1408   38.8198 dc         1 CLA      0.024100
    113 HHD        72.8901   57.0646   40.3390 da         1 CLA      0.174300
    114 HHC        77.1534   60.9125   43.2530 da         1 CLA      0.136800
    115 HHB        81.5365   59.8697   38.7280 da         1 CLA      0.138300
    116 HBD        76.6523   56.1677   34.3606 dc         1 CLA      0.107700
    117 HAB        78.7600   62.5543   43.7369 da         1 CLA      0.155200
    118 H93        86.1950   58.0715   38.7314 dc         1 CLA      0.069500
    119 H92        84.6518   57.2066   38.8794 dc         1 CLA      0.069500
    120 H91        85.6118   57.8729   40.2929 dc         1 CLA      0.069500
    121 H8         86.2963   55.3825   40.1371 dc         1 CLA      0.029300
    122 H72        87.4735   54.8777   37.8571 dc         1 CLA      0.044400
    123 H71        86.7153   56.1759   37.2090 dc         1 CLA      0.044400
    124 H62        84.4574   55.2296   37.7764 dc         1 CLA      0.015600
    125 H61        85.2954   53.7383   38.3254 dc         1 CLA      0.015600
    126 H52        86.2194   53.8432   35.8170 dc         1 CLA      0.033200
    127 H51        85.2382   55.1008   35.4745 dc         1 CLA      0.033200
    128 H43        83.7753   51.7112   34.2427 dc         1 CLA      0.037000
    129 H42        85.4317   52.1385   34.4930 dc         1 CLA      0.037000
    130 H41        84.6435   51.2330   35.6707 dc         1 CLA      0.037000
    131 H3A        81.2766   58.9415   36.2765 dc         1 CLA      0.041100
    132 H2A        79.8778   56.3454   36.1501 dc         1 CLA      0.083100
    133 H2         82.1903   53.3199   36.5050 da         1 CLA      0.180900
    134 H18        85.9866   59.2305   45.1216 dc         1 CLA     -0.003900
    135 H13        89.8498   56.5271   43.2589 dc         1 CLA      0.019700
    136 H12        80.9319   53.9020   34.5560 dc         1 CLA      0.120400
    137 H11        82.4317   53.7662   33.5723 dc         1 CLA      0.120400
    138 C1         69.7404   61.5335   50.2365 Z1         2 LUT      0.509236
    139 C2         68.8566   61.9477   51.3735 Z2         2 LUT     -0.434695
    140 C3         67.6438   62.8162   51.0447 Z3         2 LUT      0.437453
    141 O3         67.2812   63.6002   52.2477 S1         2 LUT     -0.547129
    142 C4         67.9677   63.8360   50.0233 Z4         2 LUT     -0.468603
    143 C5         68.6947   63.3273   48.8075 Z5         2 LUT      0.279246
    144 C6         69.6259   62.2954   48.8623 Z6         2 LUT     -0.305473
    145 C7         70.2320   61.6369   47.7024 Z7         2 LUT      0.069402
    146 C8         70.9991   62.1684   46.6998 Z8         2 LUT     -0.191631
    147 C9         71.5294   61.6781   45.5017 Z9         2 LUT      0.196698
    148 C10        72.3783   62.4569   44.8300 Y1         2 LUT     -0.208611
    149 C11        73.0497   62.3685   43.6001 Y2         2 LUT      0.030784
    150 C12        74.2401   62.9520   43.3380 Y3         2 LUT     -0.220316
    151 C13        74.9879   62.9323   42.0880 Y4         2 LUT      0.215937
    152 C14        76.2154   63.6498   42.2657 Y5         2 LUT     -0.185793
    153 C15        77.2937   63.8454   41.2819 Y6         2 LUT     -0.057835
    154 C16        69.9796   59.9407   50.3246 Y7         2 LUT     -0.405615
    155 C17        71.1822   62.0015   50.6190 Y7         2 LUT     -0.405615
    156 C18        68.2453   63.8973   47.4908 Y9         2 LUT     -0.369639
    157 C19        70.9494   60.4561   44.8476 W1         2 LUT     -0.333362
    158 C20        74.5695   62.1606   40.8458 W2         2 LUT     -0.323439
    159 C21        88.7744   64.9985   35.4373 Z1         2 LUT      0.406104
    160 C22        89.3446   64.2212   34.2108 Z2         2 LUT     -0.404965
    161 C23        89.5791   65.1367   33.0400 Z3         2 LUT      0.391255
    162 O23        90.1430   64.2590   32.0274 S1         2 LUT     -0.528210
    163 C24        88.2962   65.9475   32.7390 W6         2 LUT     -0.258361
    164 C25        87.3176   66.1856   33.6287 Z5         2 LUT      0.133546
    165 C26        87.2471   65.4838   35.0349 W8         2 LUT     -0.147008
    166 C27        86.5637   66.2209   36.2059 Z7         2 LUT      0.023843
    167 C28        85.3124   65.9293   36.6258 Z8         2 LUT     -0.216987
    168 C29        84.6441   66.4835   37.7577 Z9         2 LUT      0.206524
    169 C30        83.5474   65.8816   38.3437 Y1         2 LUT     -0.215556
    170 C31        82.7225   66.1947   39.4846 Y2         2 LUT      0.025142
    171 C32        81.6376   65.4331   39.6995 Y3         2 LUT     -0.212209
    172 C33        80.6162   65.5797   40.7081 Y4         2 LUT      0.240937
    173 C34        79.5464   64.7164   40.6656 Y5         2 LUT     -0.218862
    174 C35        78.3980   64.6571   41.5329 Y6         2 LUT     -0.023547
    175 C36        89.6854   66.1582   35.8755 Y7         2 LUT     -0.393485
    176 C37        88.7040   63.9004   36.5506 Y7         2 LUT     -0.393485
    177 C38        86.2553   67.1495   33.2628 Y9         2 LUT     -0.387526
    178 C39        85.0790   67.7231   38.4873 W1         2 LUT     -0.322618
    179 C40        80.8818   66.5798   41.7849 W2         2 LUT     -0.358472
    180 H403       80.6657   67.5767   41.3985 R7         2 LUT      0.097720
    181 H402       80.2841   66.4194   42.7225 R7         2 LUT      0.097720
    182 H401       81.9482   66.5971   42.0580 R7         2 LUT      0.097720
    183 H393       84.2089   68.2605   38.8506 R4         2 LUT      0.082505
    184 H392       85.7317   67.4575   39.3250 R4         2 LUT      0.082505
    185 H391       85.7356   68.3029   37.8049 R4         2 LUT      0.082505
    186 H383       85.8049   66.6907   32.3169 R1         2 LUT      0.104030
    187 H382       85.4114   67.1783   34.0120 R1         2 LUT      0.104030
    188 H381       86.6275   68.1847   32.9800 R1         2 LUT      0.104030
    189 H373       89.6944   63.6138   36.9337 T4         2 LUT      0.089537
    190 H372       88.2029   64.2274   37.4309 T4         2 LUT      0.089537
    191 H371       88.2550   62.9559   36.1851 T4         2 LUT      0.089537
    192 H363       89.3730   66.5521   36.8745 T4         2 LUT      0.089537
    193 H362       90.7924   65.9014   35.8172 T4         2 LUT      0.089537
    194 H361       89.6079   67.0474   35.2914 T4         2 LUT      0.089537
    195 H222       90.2578   63.6746   34.4456 U2         2 LUT      0.127376
    196 H221       88.5930   63.5382   34.0044 U2         2 LUT      0.127376
    197 H203       73.8442   62.6896   40.2147 R7         2 LUT      0.087068
    198 H202       75.5287   61.9512   40.3020 R7         2 LUT      0.087068
    199 H201       74.1558   61.2191   41.0829 R7         2 LUT      0.087068
    200 H193       69.9315   60.4987   44.4112 R4         2 LUT      0.089716
    201 H192       71.4719   60.0662   43.9476 R4         2 LUT      0.089716
    202 H191       70.9281   59.6027   45.5548 R4         2 LUT      0.089716
    203 H183       68.6663   64.8424   47.1764 R1         2 LUT      0.094572
    204 H182       68.5004   63.2365   46.6667 R1         2 LUT      0.094572
    205 H181       67.1758   63.9839   47.4242 R1         2 LUT      0.094572
    206 H173       71.0725   63.1078   50.6614 T4         2 LUT      0.093752
    207 H172       71.5982   61.6730   51.5506 T4         2 LUT      0.093752
    208 H171       71.9590   61.6820   49.8521 T4         2 LUT      0.093752
    209 H163       70.8114   59.5754   49.7287 T4         2 LUT      0.093752
    210 H162       70.1611   59.7511   51.4053 T4         2 LUT      0.093752
    211 H161       69.1360   59.3642   50.0288 T4         2 LUT      0.093752
    212 HO3        66.6910   63.0929   52.8148 Q1         2 LUT      0.300121
    213 H8         71.0848   63.2709   46.8847 U7         2 LUT      0.080784
    214 H7         70.1685   60.5372   47.6525 U6         2 LUT      0.042190
    215 H42        66.9528   64.3726   49.7259 U5         2 LUT      0.145166
    216 H41        68.5006   64.7139   50.3261 U5         2 LUT      0.145166
    217 H35        78.4956   65.2481   42.4250 T3         2 LUT      0.077919
    218 H34        79.3665   64.0685   39.7945 T2         2 LUT      0.073626
    219 H32        81.4306   64.5573   39.0402 T1         2 LUT      0.092510
    220 H31        82.9560   67.0007   40.1329 U9         2 LUT      0.070048
    221 H30        83.1832   65.0251   37.8276 U8         2 LUT      0.085442
    222 H3         66.8252   62.2074   50.6019 U3         2 LUT     -0.031596
    223 H28        84.7207   65.1226   36.1319 U7         2 LUT      0.084728
    224 H27        87.1525   67.0166   36.7186 U6         2 LUT      0.087291
    225 H26        86.6383   64.5824   34.7274 Q6         2 LUT      0.075325
    226 H24        88.3496   66.5466   31.8036 Q5         2 LUT      0.094482
    227 H23        90.4344   65.6849   33.5582 U3         2 LUT     -0.024869
    228 H22        68.3423   61.0755   51.9234 U2         2 LUT      0.127376
    229 H21        69.2774   62.5463   52.1526 U2         2 LUT      0.127376
    230 H15        77.2640   63.4067   40.2928 T3         2 LUT      0.093200
    231 H14        76.4229   64.1842   43.1936 T2         2 LUT      0.068865
    232 H12        74.6380   63.4749   44.1930 T1         2 LUT      0.095507
    233 H11        72.7050   61.7255   42.8082 U9         2 LUT      0.068930
    234 H10        72.6984   63.4031   45.3458 U8         2 LUT      0.083911
    235 H1         89.4583   63.9198   31.4133 Q1         2 LUT      0.297311
@<TRIPOS>BOND
    1     6     1 1
    2     7     2 1
    3     8     3 1
    4     9     4 1
    5    11     4 1
    6    12     6 1
    7    13     9 1
    8    16     9 1
    9    25     5 1
   10    25    16 1
   11    26    10 1
   12    26    17 1
   13    27    18 1
   14    28    14 1
   15    28    19 1
   16    29    12 1
   17    30    13 1
   18    31    24 1
   19    32     1 1
   20    32    25 1
   21    33    21 1
   22    33    26 1
   23    34    22 1
   24    34    27 1
   25    35    23 1
   26    35    28 1
   27    36    12 1
   28    36    24 1
   29    37    13 1
   30    37    15 1
   31    38    31 1
   32    39    20 1
   33    39    32 1
   34    40     2 1
   35    40    33 1
   36    41     3 1
   37    41    34 1
   38    42     4 1
   39    42    35 1
   40    43    38 1
   41    44     5 1
   42    44    17 1
   43    44    39 1
   44    45    10 1
   45    45    18 1
   46    45    40 1
   47    46    19 1
   48    46    41 1
   49    47    14 1
   50    47    16 1
   51    47    42 1
   52    48    38 1
   53    49    48 1
   54    50    49 1
   55    51    50 1
   56    52    51 1
   57    53    51 1
   58    54    53 1
   59    55    54 1
   60    56    55 1
   61    57    56 1
   62    58    56 1
   63    59    58 1
   64    60    59 1
   65    61    60 1
   66    62    61 1
   67    63    61 1
   68    64    27 1
   69    64    46 1
   70    65     5 1
   71    65    10 1
   72    65    64 1
   73    65    14 1
   74    66    23 1
   75    67    23 1
   76    68    23 1
   77    69    22 1
   78    70    22 1
   79    71    22 1
   80    72    21 1
   81    73    21 1
   82    74    21 1
   83    75    20 1
   84    76    20 1
   85    77    20 1
   86    78    15 1
   87    79    15 1
   88    80    15 1
   89    81     8 1
   90    82     8 1
   91    83     8 1
   92    84     7 1
   93    85     7 1
   94    86     6 1
   95    87     6 1
   96    88     3 1
   97    89     3 1
   98    90     1 1
   99    91     1 1
  100    92    63 1
  101    93    63 1
  102    94    63 1
  103    95    62 1
  104    96    62 1
  105    97    62 1
  106    98    60 1
  107    99    60 1
  108   100    59 1
  109   101    59 1
  110   102    58 1
  111   103    58 1
  112   104    57 1
  113   105    57 1
  114   106    57 1
  115   107    55 1
  116   108    55 1
  117   109    54 1
  118   110    54 1
  119   111    53 1
  120   112    53 1
  121   113    19 1
  122   114    18 1
  123   115    17 1
  124   116     9 1
  125   117     2 1
  126   118    52 1
  127   119    52 1
  128   120    52 1
  129   121    51 1
  130   122    50 1
  131   123    50 1
  132   124    49 1
  133   125    49 1
  134   126    48 1
  135   127    48 1
  136   128    43 1
  137   129    43 1
  138   130    43 1
  139   131    39 1
  140   132    32 1
  141   133    31 1
  142   134    61 1
  143   135    56 1
  144   136    24 1
  145   137    24 1
  146   139   138 1
  147   140   139 1
  148   141   140 1
  149   142   140 1
  150   143   142 1
  151   144   138 1
  152   144   143 1
  153   145   144 1
  154   146   145 1
  155   147   146 1
  156   148   147 1
  157   149   148 1
  158   150   149 1
  159   151   150 1
  160   152   151 1
  161   153   152 1
  162   154   138 1
  163   155   138 1
  164   156   143 1
  165   157   147 1
  166   158   151 1
  167   160   159 1
  168   161   160 1
  169   162   161 1
  170   163   161 1
  171   164   163 1
  172   165   159 1
  173   165   164 1
  174   166   165 1
  175   167   166 1
  176   168   167 1
  177   169   168 1
  178   170   169 1
  179   171   170 1
  180   172   171 1
  181   173   172 1
  182   174   153 1
  183   174   173 1
  184   175   159 1
  185   176   159 1
  186   177   164 1
  187   178   168 1
  188   179   172 1
  189   180   179 1
  190   181   179 1
  191   182   179 1
  192   183   178 1
  193   184   178 1
  194   185   178 1
  195   186   177 1
  196   187   177 1
  197   188   177 1
  198   189   176 1
  199   190   176 1
  200   191   176 1
  201   192   175 1
  202   193   175 1
  203   194   175 1
  204   195   160 1
  205   196   160 1
  206   197   158 1
  207   198   158 1
  208   199   158 1
  209   200   157 1
  210   201   157 1
  211   202   157 1
  212   203   156 1
  213   204   156 1
  214   205   156 1
  215   206   155 1
  216   207   155 1
  217   208   155 1
  218   209   154 1
  219   210   154 1
  220   211   154 1
  221   212   141 1
  222   213   146 1
  223   214   145 1
  224   215   142 1
  225   216   142 1
  226   217   174 1
  227   218   173 1
  228   219   171 1
  229   220   170 1
  230   221   169 1
  231   222   140 1
  232   223   167 1
  233   224   166 1
  234   225   165 1
  235   226   163 1
  236   227   161 1
  237   228   139 1
  238   229   139 1
  239   230   153 1
  240   231   152 1
  241   232   150 1
  242   233   149 1
  243   234   148 1
  244   235   162 1
  245   65    153 1
  246   65    174 1
@<TRIPOS>SUBSTRUCTURE
      1 CLA               1 ****               0 ****  **** 
      2 LUT             138 ****               0 ****  **** 
