@<TRIPOS>MOLECULE
Cpptraj generated mol2 file.
  235   246     2     0     0
SMALL
USER_CHARGES


@<TRIPOS>ATOM
      1 CAA        77.7785   57.8567   34.8028 a2         1 CLA     -0.055900
      2 CAB        77.9749   62.0331   43.7325 c8         1 CLA     -0.148500
      3 CAC        71.0547   57.8890   43.5824 a2         1 CLA     -0.012600
      4 CAD        73.6539   55.2512   36.1454 ck         1 CLA      0.398800
      5 NA         76.8607   58.2661   38.2656 ns         1 CLA     -0.225500
      6 CBA        79.1277   57.7980   33.9187 a2         1 CLA     -0.135000
      7 CBB        79.1960   62.1910   44.3408 c0         1 CLA     -0.395200
      8 CBC        70.7667   56.3618   43.3907 a3         1 CLA     -0.037700
      9 CBD        75.1489   55.6865   35.8470 a1         1 CLA     -0.053900
     10 NB         76.7365   59.9580   40.7975 nm         1 CLA     -0.295700
     11 OBD        72.8893   54.5357   35.4462 o2         1 CLA     -0.494600
     12 CGA        79.6733   56.4108   33.6990 c4         1 CLA      0.827000
     13 CGD        75.9938   54.4353   35.6578 c4         1 CLA      0.655300
     14 ND         74.0767   57.3757   38.9811 nm         1 CLA     -0.291600
     15 CED        76.6229   52.3854   36.7736 a3         1 CLA      0.005400
     16 CHA        75.5454   56.5959   36.9788 cs         1 CLA     -0.123800
     17 CHB        78.5966   59.7524   39.1775 aa         1 CLA     -0.291900
     18 CHC        75.3879   60.4543   42.8152 aa         1 CLA     -0.090400
     19 CHD        72.1843   57.6323   40.4351 aa         1 CLA     -0.052000
     20 CMA        80.3472   57.7242   37.4134 a3         1 CLA     -0.230700
     21 CMB        80.1959   61.5921   41.2165 a3         1 CLA     -0.180800
     22 CMC        73.1969   59.9786   44.9662 a3         1 CLA     -0.134000
     23 CMD        70.7923   55.5854   38.0949 a3         1 CLA     -0.141100
     24 C1         80.6811   54.4953   34.7186 a2         1 CLA      0.023000
     25 C1A        76.6943   57.3941   37.1859 ac         1 CLA     -0.015100
     26 C1B        78.0675   60.2540   40.4501 cr         1 CLA      0.054700
     27 C1C        74.2786   59.6970   42.5945 cn         1 CLA     -0.005600
     28 C1D        72.8181   57.0395   39.3157 ap         1 CLA     -0.047300
     29 O1A        79.3551   55.7081   32.7627 o2         1 CLA     -0.610800
     30 O1D        76.9415   54.3391   34.8878 o2         1 CLA     -0.558200
     31 C2         81.0265   53.8972   36.0976 c8         1 CLA     -0.325100
     32 C2A        77.9717   57.4195   36.2839 a1         1 CLA      0.098600
     33 C2B        78.7610   61.0509   41.4319 cb         1 CLA      0.088500
     34 C2C        73.2089   59.4350   43.5822 cb         1 CLA      0.053700
     35 C2D        72.2302   56.1577   38.2828 cb         1 CLA      0.058900
     36 O2A        80.3322   55.9611   34.8453 o1         1 CLA     -0.437200
     37 O2D        75.6759   53.4895   36.6098 o1         1 CLA     -0.357600
     38 C3         82.2518   53.6698   36.5798 c5         1 CLA      0.031200
     39 C3A        78.9671   58.3566   37.0800 a1         1 CLA      0.166800
     40 C3B        77.7921   61.2824   42.4570 cb         1 CLA      0.035000
     41 C3C        72.3325   58.5284   42.9579 cb         1 CLA     -0.089900
     42 C3D        73.2780   55.9783   37.4072 cb         1 CLA     -0.035900
     43 C4         83.1026   52.3959   36.4444 a3         1 CLA     -0.053300
     44 C4A        78.0906   58.8054   38.2263 ac         1 CLA      0.001800
     45 C4B        76.5095   60.5812   42.0511 cn         1 CLA     -0.020900
     46 C4C        72.7867   58.3338   41.5800 cr         1 CLA     -0.044400
     47 C4D        74.4180   56.7156   37.8256 c6         1 CLA     -0.046000
     48 C5         82.9105   54.8779   37.2784 a2         1 CLA     -0.070400
     49 C6         84.0820   54.6139   38.2242 a2         1 CLA      0.043900
     50 C7         84.1861   55.7346   39.2885 a2         1 CLA     -0.150000
     51 C8         84.4334   57.1150   38.8263 a1         1 CLA      0.064200
     52 C9         85.7317   57.1549   37.9763 a3         1 CLA     -0.259300
     53 C10        84.6562   58.0937   39.9932 a2         1 CLA     -0.071900
     54 C11        83.4809   58.4305   40.8506 a2         1 CLA      0.014500
     55 C12        83.7143   59.3780   42.0197 a2         1 CLA     -0.112100
     56 C13        84.7315   58.9676   43.0813 a1         1 CLA      0.089200
     57 C14        84.2919   57.6572   43.8450 a3         1 CLA     -0.239100
     58 C15        85.1148   60.0659   44.0581 a2         1 CLA     -0.102200
     59 C16        83.9674   60.8085   44.7080 a2         1 CLA      0.023900
     60 C17        84.4352   61.7493   45.8046 a2         1 CLA     -0.105700
     61 C18        83.3979   62.3324   46.7858 a1         1 CLA      0.206800
     62 C19        82.4434   63.4147   46.1294 a3         1 CLA     -0.280100
     63 C20        82.6973   61.2187   47.6196 a3         1 CLA     -0.280100
     64 NC         74.0142   58.9883   41.4683 nx         1 CLA     -0.309200
     65 MG         75.3634   58.7744   39.8368 mg         1 CLA      0.895000
     66 HMD3       70.6489   54.7861   37.4267 dc         1 CLA      0.064300
     67 HMD2       70.4010   55.3143   39.0527 dc         1 CLA      0.064300
     68 HMD1       70.0678   56.4032   37.8443 dc         1 CLA      0.064300
     69 HMC3       73.5481   61.0273   44.9901 dc         1 CLA      0.052100
     70 HMC2       72.2862   59.8894   45.4070 dc         1 CLA      0.052100
     71 HMC1       73.8574   59.4355   45.5916 dc         1 CLA      0.052100
     72 HMB3       80.9420   60.7388   41.3957 dc         1 CLA      0.063600
     73 HMB2       80.1875   61.9048   40.1502 dc         1 CLA      0.063600
     74 HMB1       80.3460   62.4724   41.8565 dc         1 CLA      0.063600
     75 HMA3       80.9422   58.4269   37.9727 dc         1 CLA      0.058300
     76 HMA2       80.2019   56.8084   38.0622 dc         1 CLA      0.058300
     77 HMA1       80.7139   57.4168   36.4546 dc         1 CLA      0.058300
     78 HED3       76.2163   51.6920   37.4591 dc         1 CLA      0.079300
     79 HED2       76.8576   51.9394   35.8743 dc         1 CLA      0.079300
     80 HED1       77.4327   52.9473   37.2245 dc         1 CLA      0.079300
     81 HBC3       70.6759   56.0889   42.3436 dc         1 CLA      0.016300
     82 HBC2       71.5926   55.8533   43.8644 dc         1 CLA      0.016300
     83 HBC1       69.8182   56.0905   43.8574 dc         1 CLA      0.016300
     84 HBB2       79.1676   62.6466   45.2914 da         1 CLA      0.183000
     85 HBB1       80.1285   61.6903   44.0448 da         1 CLA      0.183000
     86 HBA2       78.9436   58.2200   32.9339 dc         1 CLA      0.029400
     87 HBA1       79.9632   58.3136   34.4087 dc         1 CLA      0.029400
     88 HAC2       71.0218   58.1014   44.6809 dc         1 CLA      0.029300
     89 HAC1       70.1794   58.3510   43.1729 dc         1 CLA      0.029300
     90 HAA2       77.1219   57.1839   34.2953 dc         1 CLA      0.028700
     91 HAA1       77.2839   58.8885   34.7437 dc         1 CLA      0.028700
     92 H203       82.0428   61.7718   48.2519 dc         1 CLA      0.065600
     93 H202       82.1271   60.5347   47.0541 dc         1 CLA      0.065600
     94 H201       83.4890   60.7054   48.1571 dc         1 CLA      0.065600
     95 H193       83.1646   63.9694   45.5734 dc         1 CLA      0.065600
     96 H192       81.6978   62.9225   45.5373 dc         1 CLA      0.065600
     97 H191       81.9814   64.1099   46.8658 dc         1 CLA      0.065600
     98 H172       85.1433   61.1815   46.4278 dc         1 CLA      0.027600
     99 H171       84.9264   62.5863   45.3011 dc         1 CLA      0.027600
    100 H162       83.3920   61.4393   43.9739 dc         1 CLA      0.002900
    101 H161       83.3248   60.0502   45.1027 dc         1 CLA      0.002900
    102 H152       85.8769   59.5807   44.7436 dc         1 CLA      0.029100
    103 H151       85.6546   60.7961   43.4922 dc         1 CLA      0.029100
    104 H143       84.8743   56.8210   43.4764 dc         1 CLA      0.063600
    105 H142       84.5632   57.7937   44.9306 dc         1 CLA      0.063600
    106 H141       83.2363   57.5638   43.8206 dc         1 CLA      0.063600
    107 H122       84.0647   60.3443   41.5931 dc         1 CLA      0.032500
    108 H121       82.7132   59.6018   42.4757 dc         1 CLA      0.032500
    109 H112       82.8312   58.9934   40.2343 dc         1 CLA      0.006600
    110 H111       83.0280   57.5343   41.2191 dc         1 CLA      0.006600
    111 H102       85.4867   57.6531   40.5762 dc         1 CLA      0.024100
    112 H101       84.9438   59.0029   39.5557 dc         1 CLA      0.024100
    113 HHD        71.2534   57.1697   40.5923 da         1 CLA      0.174300
    114 HHC        75.5025   60.8826   43.7941 da         1 CLA      0.136800
    115 HHB        79.5496   60.2666   38.8614 da         1 CLA      0.138300
    116 HBD        75.0627   56.2292   34.9060 dc         1 CLA      0.107700
    117 HAB        77.0264   62.4149   44.1977 da         1 CLA      0.155200
    118 H93        86.6078   56.9407   38.6638 dc         1 CLA      0.069500
    119 H92        85.7382   56.4392   37.1396 dc         1 CLA      0.069500
    120 H91        85.9070   58.1190   37.4845 dc         1 CLA      0.069500
    121 H8         83.5498   57.4983   38.2511 dc         1 CLA      0.029300
    122 H72        83.3308   55.5963   39.9106 dc         1 CLA      0.044400
    123 H71        85.1254   55.4460   39.8515 dc         1 CLA      0.044400
    124 H62        83.8493   53.6614   38.7316 dc         1 CLA      0.015600
    125 H61        85.0358   54.4793   37.6907 dc         1 CLA      0.015600
    126 H52        83.2172   55.5637   36.5145 dc         1 CLA      0.033200
    127 H51        82.1612   55.4058   37.8867 dc         1 CLA      0.033200
    128 H43        83.4910   52.1427   37.4473 dc         1 CLA      0.037000
    129 H42        82.5215   51.5695   36.0210 dc         1 CLA      0.037000
    130 H41        83.8595   52.6013   35.7766 dc         1 CLA      0.037000
    131 H3A        79.1836   59.1861   36.4098 dc         1 CLA      0.041100
    132 H2A        78.3479   56.4514   36.2492 dc         1 CLA      0.083100
    133 H2         80.3355   53.4857   36.8285 da         1 CLA      0.180900
    134 H18        83.9886   62.9349   47.5332 dc         1 CLA     -0.003900
    135 H13        85.7508   58.7941   42.6105 dc         1 CLA      0.019700
    136 H12        79.9238   53.8400   34.2626 dc         1 CLA      0.120400
    137 H11        81.5037   54.4105   33.9997 dc         1 CLA      0.120400
    138 C1         67.3622   61.2435   51.1064 Z1         2 LUT      0.509236
    139 C2         67.5394   62.3642   52.1277 Z2         2 LUT     -0.434695
    140 C3         66.4149   63.3716   52.3138 Z3         2 LUT      0.437453
    141 O3         66.9937   64.5208   52.8548 S1         2 LUT     -0.547129
    142 C4         65.5935   63.5589   51.0091 Z4         2 LUT     -0.468603
    143 C5         66.2224   63.0091   49.6954 Z5         2 LUT      0.279246
    144 C6         67.0319   61.9110   49.7057 Z6         2 LUT     -0.305473
    145 C7         67.8262   61.4497   48.4995 Z7         2 LUT      0.069402
    146 C8         68.3732   62.2550   47.5381 Z8         2 LUT     -0.191631
    147 C9         69.1050   61.7743   46.3299 Z9         2 LUT      0.196698
    148 C10        70.0342   62.5807   45.7228 Y1         2 LUT     -0.208611
    149 C11        70.7092   62.3211   44.4561 Y2         2 LUT      0.030784
    150 C12        71.7641   63.0724   44.1100 Y3         2 LUT     -0.220316
    151 C13        72.6071   63.0109   42.8158 Y4         2 LUT      0.215937
    152 C14        73.8006   63.6853   42.5962 Y5         2 LUT     -0.185793
    153 C15        74.8375   63.5697   41.5925 Y6         2 LUT     -0.057835
    154 C16        66.3051   60.4440   51.8365 Y7         2 LUT     -0.405615
    155 C17        68.6186   60.3575   51.1086 Y7         2 LUT     -0.405615
    156 C18        66.0683   63.9224   48.5135 Y9         2 LUT     -0.369639
    157 C19        68.7439   60.4437   45.8014 W1         2 LUT     -0.333362
    158 C20        71.9758   62.3153   41.7206 W2         2 LUT     -0.323439
    159 C21        86.7754   65.2452   35.3844 Z1         2 LUT      0.406104
    160 C22        87.3529   64.8728   33.9917 Z2         2 LUT     -0.404965
    161 C23        87.1954   65.9524   32.8251 Z3         2 LUT      0.391255
    162 O23        87.7287   65.2878   31.6103 S1         2 LUT     -0.528210
    163 C24        85.8437   66.5626   32.8187 W6         2 LUT     -0.258361
    164 C25        84.9669   66.4523   33.8065 Z5         2 LUT      0.133546
    165 C26        85.2679   65.5805   35.0985 W8         2 LUT     -0.147008
    166 C27        84.4594   66.0120   36.2146 Z7         2 LUT      0.023843
    167 C28        83.1642   65.6352   36.5224 Z8         2 LUT     -0.216987
    168 C29        82.4084   66.0902   37.6837 Z9         2 LUT      0.206524
    169 C30        81.3871   65.3296   38.0847 Y1         2 LUT     -0.215556
    170 C31        80.4327   65.4202   39.2108 Y2         2 LUT      0.025142
    171 C32        79.2415   64.7635   39.5499 Y3         2 LUT     -0.212209
    172 C33        78.2406   65.1126   40.5838 Y4         2 LUT      0.240937
    173 C34        77.0808   64.3028   40.6907 Y5         2 LUT     -0.218862
    174 C35        75.9993   64.3373   41.6383 Y6         2 LUT     -0.023547
    175 C36        87.7131   66.3752   35.9155 Y7         2 LUT     -0.393485
    176 C37        86.9769   63.9365   36.2206 Y7         2 LUT     -0.393485
    177 C38        83.6840   67.2551   33.6841 Y9         2 LUT     -0.387526
    178 C39        82.8499   67.3969   38.3380 W1         2 LUT     -0.322618
    179 C40        78.5108   66.1245   41.6244 W2         2 LUT     -0.358472
    180 H403       78.2750   67.1351   41.2554 R7         2 LUT      0.097720
    181 H402       77.9985   66.0182   42.5869 R7         2 LUT      0.097720
    182 H401       79.5890   66.1374   41.8530 R7         2 LUT      0.097720
    183 H393       83.3703   68.0571   37.6713 R4         2 LUT      0.082505
    184 H392       81.9253   67.9111   38.6725 R4         2 LUT      0.082505
    185 H391       83.3154   67.3335   39.3047 R4         2 LUT      0.082505
    186 H383       83.5579   68.0761   34.4240 R1         2 LUT      0.104030
    187 H382       83.6443   67.7587   32.7102 R1         2 LUT      0.104030
    188 H381       82.7527   66.6094   33.7642 R1         2 LUT      0.104030
    189 H373       86.8608   64.1889   37.2976 T4         2 LUT      0.089537
    190 H372       86.2736   63.1340   36.0430 T4         2 LUT      0.089537
    191 H371       87.9347   63.4577   36.0522 T4         2 LUT      0.089537
    192 H363       87.6478   67.2296   35.4048 T4         2 LUT      0.089537
    193 H362       87.4740   66.5923   36.9284 T4         2 LUT      0.089537
    194 H361       88.7235   66.2237   35.9871 T4         2 LUT      0.089537
    195 H222       88.3672   64.8029   34.1446 U2         2 LUT      0.127376
    196 H221       87.0350   63.9306   33.6231 U2         2 LUT      0.127376
    197 H203       72.6489   61.9339   40.9386 R7         2 LUT      0.087068
    198 H202       71.5194   61.3833   42.1048 R7         2 LUT      0.087068
    199 H201       71.1378   62.7961   41.2405 R7         2 LUT      0.087068
    200 H193       68.3404   60.4926   44.8374 R4         2 LUT      0.089716
    201 H192       69.6422   59.8911   45.7163 R4         2 LUT      0.089716
    202 H191       68.1504   59.7857   46.4740 R4         2 LUT      0.089716
    203 H183       65.0572   64.3864   48.4648 R1         2 LUT      0.094572
    204 H182       66.7713   64.7135   48.5619 R1         2 LUT      0.094572
    205 H181       66.2300   63.4359   47.5381 R1         2 LUT      0.094572
    206 H173       68.5668   59.4628   50.5574 T4         2 LUT      0.093752
    207 H172       69.4517   60.9146   50.7162 T4         2 LUT      0.093752
    208 H171       68.9902   60.0499   52.0618 T4         2 LUT      0.093752
    209 H163       65.9986   59.6549   51.1804 T4         2 LUT      0.093752
    210 H162       66.6181   59.9934   52.7962 T4         2 LUT      0.093752
    211 H161       65.3993   61.0182   52.0035 T4         2 LUT      0.093752
    212 HO3        66.4407   65.3015   52.9441 Q1         2 LUT      0.300121
    213 H8         68.4166   63.3694   47.6096 U7         2 LUT      0.080784
    214 H7         67.7759   60.3398   48.2705 U6         2 LUT      0.042190
    215 H42        64.5505   63.2866   51.1083 U5         2 LUT      0.145166
    216 H41        65.4692   64.6133   50.7657 U5         2 LUT      0.145166
    217 H35        76.0466   65.1125   42.4409 T3         2 LUT      0.077919
    218 H34        76.9588   63.4616   39.9320 T2         2 LUT      0.073626
    219 H32        79.0177   63.9283   38.9165 T1         2 LUT      0.092510
    220 H31        80.7701   66.2456   39.7928 U9         2 LUT      0.070048
    221 H30        81.2348   64.2969   37.6787 U8         2 LUT      0.085442
    222 H3         65.7648   62.8667   53.0495 U3         2 LUT     -0.031596
    223 H28        82.7238   64.9433   35.8790 U7         2 LUT      0.084728
    224 H27        84.9641   66.5847   37.0245 U6         2 LUT      0.087291
    225 H26        84.7764   64.5818   34.8750 Q6         2 LUT      0.075325
    226 H24        85.6183   67.1407   31.9008 Q5         2 LUT      0.094482
    227 H23        88.0772   66.6199   33.0769 U3         2 LUT     -0.024869
    228 H22        67.8330   62.1234   53.1197 U2         2 LUT      0.127376
    229 H21        68.4709   62.8539   51.8442 U2         2 LUT      0.127376
    230 H15        74.6982   62.8686   40.8143 T3         2 LUT      0.093200
    231 H14        74.0299   64.3259   43.4315 T2         2 LUT      0.068865
    232 H12        72.0618   63.8354   44.8194 T1         2 LUT      0.095507
    233 H11        70.4363   61.4577   43.8876 U9         2 LUT      0.068930
    234 H10        70.2684   63.5558   46.1799 U8         2 LUT      0.083911
    235 H1         87.0133   64.7473   31.2295 Q1         2 LUT      0.297311
@<TRIPOS>BOND
    1     6     1 1
    2     7     2 1
    3     8     3 1
    4     9     4 1
    5    11     4 1
    6    12     6 1
    7    13     9 1
    8    16     9 1
    9    25     5 1
   10    25    16 1
   11    26    10 1
   12    26    17 1
   13    27    18 1
   14    28    14 1
   15    28    19 1
   16    29    12 1
   17    30    13 1
   18    31    24 1
   19    32     1 1
   20    32    25 1
   21    33    21 1
   22    33    26 1
   23    34    22 1
   24    34    27 1
   25    35    23 1
   26    35    28 1
   27    36    12 1
   28    36    24 1
   29    37    13 1
   30    37    15 1
   31    38    31 1
   32    39    20 1
   33    39    32 1
   34    40     2 1
   35    40    33 1
   36    41     3 1
   37    41    34 1
   38    42     4 1
   39    42    35 1
   40    43    38 1
   41    44     5 1
   42    44    17 1
   43    44    39 1
   44    45    10 1
   45    45    18 1
   46    45    40 1
   47    46    19 1
   48    46    41 1
   49    47    14 1
   50    47    16 1
   51    47    42 1
   52    48    38 1
   53    49    48 1
   54    50    49 1
   55    51    50 1
   56    52    51 1
   57    53    51 1
   58    54    53 1
   59    55    54 1
   60    56    55 1
   61    57    56 1
   62    58    56 1
   63    59    58 1
   64    60    59 1
   65    61    60 1
   66    62    61 1
   67    63    61 1
   68    64    27 1
   69    64    46 1
   70    65     5 1
   71    65    10 1
   72    65    64 1
   73    65    14 1
   74    66    23 1
   75    67    23 1
   76    68    23 1
   77    69    22 1
   78    70    22 1
   79    71    22 1
   80    72    21 1
   81    73    21 1
   82    74    21 1
   83    75    20 1
   84    76    20 1
   85    77    20 1
   86    78    15 1
   87    79    15 1
   88    80    15 1
   89    81     8 1
   90    82     8 1
   91    83     8 1
   92    84     7 1
   93    85     7 1
   94    86     6 1
   95    87     6 1
   96    88     3 1
   97    89     3 1
   98    90     1 1
   99    91     1 1
  100    92    63 1
  101    93    63 1
  102    94    63 1
  103    95    62 1
  104    96    62 1
  105    97    62 1
  106    98    60 1
  107    99    60 1
  108   100    59 1
  109   101    59 1
  110   102    58 1
  111   103    58 1
  112   104    57 1
  113   105    57 1
  114   106    57 1
  115   107    55 1
  116   108    55 1
  117   109    54 1
  118   110    54 1
  119   111    53 1
  120   112    53 1
  121   113    19 1
  122   114    18 1
  123   115    17 1
  124   116     9 1
  125   117     2 1
  126   118    52 1
  127   119    52 1
  128   120    52 1
  129   121    51 1
  130   122    50 1
  131   123    50 1
  132   124    49 1
  133   125    49 1
  134   126    48 1
  135   127    48 1
  136   128    43 1
  137   129    43 1
  138   130    43 1
  139   131    39 1
  140   132    32 1
  141   133    31 1
  142   134    61 1
  143   135    56 1
  144   136    24 1
  145   137    24 1
  146   139   138 1
  147   140   139 1
  148   141   140 1
  149   142   140 1
  150   143   142 1
  151   144   138 1
  152   144   143 1
  153   145   144 1
  154   146   145 1
  155   147   146 1
  156   148   147 1
  157   149   148 1
  158   150   149 1
  159   151   150 1
  160   152   151 1
  161   153   152 1
  162   154   138 1
  163   155   138 1
  164   156   143 1
  165   157   147 1
  166   158   151 1
  167   160   159 1
  168   161   160 1
  169   162   161 1
  170   163   161 1
  171   164   163 1
  172   165   159 1
  173   165   164 1
  174   166   165 1
  175   167   166 1
  176   168   167 1
  177   169   168 1
  178   170   169 1
  179   171   170 1
  180   172   171 1
  181   173   172 1
  182   174   153 1
  183   174   173 1
  184   175   159 1
  185   176   159 1
  186   177   164 1
  187   178   168 1
  188   179   172 1
  189   180   179 1
  190   181   179 1
  191   182   179 1
  192   183   178 1
  193   184   178 1
  194   185   178 1
  195   186   177 1
  196   187   177 1
  197   188   177 1
  198   189   176 1
  199   190   176 1
  200   191   176 1
  201   192   175 1
  202   193   175 1
  203   194   175 1
  204   195   160 1
  205   196   160 1
  206   197   158 1
  207   198   158 1
  208   199   158 1
  209   200   157 1
  210   201   157 1
  211   202   157 1
  212   203   156 1
  213   204   156 1
  214   205   156 1
  215   206   155 1
  216   207   155 1
  217   208   155 1
  218   209   154 1
  219   210   154 1
  220   211   154 1
  221   212   141 1
  222   213   146 1
  223   214   145 1
  224   215   142 1
  225   216   142 1
  226   217   174 1
  227   218   173 1
  228   219   171 1
  229   220   170 1
  230   221   169 1
  231   222   140 1
  232   223   167 1
  233   224   166 1
  234   225   165 1
  235   226   163 1
  236   227   161 1
  237   228   139 1
  238   229   139 1
  239   230   153 1
  240   231   152 1
  241   232   150 1
  242   233   149 1
  243   234   148 1
  244   235   162 1
  245   65    153 1
  246   65    174 1
@<TRIPOS>SUBSTRUCTURE
      1 CLA               1 ****               0 ****  **** 
      2 LUT             138 ****               0 ****  **** 
