@<TRIPOS>MOLECULE
Cpptraj generated mol2 file.
  235   246     2     0     0
SMALL
USER_CHARGES


@<TRIPOS>ATOM
      1 CAA        78.5143   57.9065   35.2465 a2         1 CLA     -0.055900
      2 CAB        77.9324   61.3431   44.2056 c8         1 CLA     -0.148500
      3 CAC        71.2743   57.0301   43.3074 a2         1 CLA     -0.012600
      4 CAD        74.2054   55.3024   35.9046 ck         1 CLA      0.398800
      5 NA         77.1671   58.1670   38.5108 ns         1 CLA     -0.225500
      6 CBA        79.8588   57.7683   34.5593 a2         1 CLA     -0.135000
      7 CBB        78.4863   62.5250   44.5631 c0         1 CLA     -0.395200
      8 CBC        71.6950   55.5586   43.4287 a3         1 CLA     -0.037700
      9 CBD        75.6442   55.8500   35.7119 a1         1 CLA     -0.053900
     10 NB         76.9018   59.6421   41.1014 nm         1 CLA     -0.295700
     11 OBD        73.6986   54.5231   35.1020 o2         1 CLA     -0.494600
     12 CGA        80.4895   56.4684   34.1719 c4         1 CLA      0.827000
     13 CGD        76.6039   54.7739   35.4217 c4         1 CLA      0.655300
     14 ND         74.3813   57.2749   38.8218 nm         1 CLA     -0.291600
     15 CED        77.6448   52.7249   36.3252 a3         1 CLA      0.005400
     16 CHA        75.9829   56.6803   37.0643 cs         1 CLA     -0.123800
     17 CHB        78.8272   59.4711   39.6392 aa         1 CLA     -0.291900
     18 CHC        75.4350   59.7636   43.0859 aa         1 CLA     -0.090400
     19 CHD        72.4506   57.1455   40.2801 aa         1 CLA     -0.052000
     20 CMA        80.4940   57.1213   38.3010 a3         1 CLA     -0.230700
     21 CMB        80.2747   61.0889   41.9219 a3         1 CLA     -0.180800
     22 CMC        73.0114   59.2014   44.9309 a3         1 CLA     -0.134000
     23 CMD        71.3314   55.1633   37.8856 a3         1 CLA     -0.141100
     24 C1         81.6767   54.6377   35.2006 a2         1 CLA      0.023000
     25 C1A        77.1394   57.4399   37.3562 ac         1 CLA     -0.015100
     26 C1B        78.1774   60.0046   40.8171 cr         1 CLA      0.054700
     27 C1C        74.3552   59.0514   42.6727 cn         1 CLA     -0.005600
     28 C1D        73.0925   56.7776   39.0818 ap         1 CLA     -0.047300
     29 O1A        80.5130   55.9607   33.0615 o2         1 CLA     -0.610800
     30 O1D        77.2651   54.6546   34.3794 o2         1 CLA     -0.558200
     31 C2         82.6876   54.4478   36.4439 c8         1 CLA     -0.325100
     32 C2A        78.4581   57.3731   36.6683 a1         1 CLA      0.098600
     33 C2B        78.8004   60.6882   41.8627 cb         1 CLA      0.088500
     34 C2C        73.2049   58.7741   43.5058 cb         1 CLA      0.053700
     35 C2D        72.6670   55.8696   37.9818 cb         1 CLA      0.058900
     36 O2A        80.9741   55.9554   35.2870 o1         1 CLA     -0.437200
     37 O2D        76.8075   53.9270   36.4495 o1         1 CLA     -0.357600
     38 C3         82.7971   53.3468   37.2271 c5         1 CLA      0.031200
     39 C3A        79.4461   58.0319   37.6517 a1         1 CLA      0.166800
     40 C3B        77.7689   60.7990   42.8716 cb         1 CLA      0.035000
     41 C3C        72.4055   57.8616   42.7570 cb         1 CLA     -0.089900
     42 C3D        73.7433   55.8480   37.1512 cb         1 CLA     -0.035900
     43 C4         81.8556   52.9868   38.4039 a3         1 CLA     -0.053300
     44 C4A        78.4239   58.6122   38.6433 ac         1 CLA      0.001800
     45 C4B        76.5628   60.0587   42.3708 cn         1 CLA     -0.020900
     46 C4C        72.9871   57.8535   41.4282 cr         1 CLA     -0.044400
     47 C4D        74.7438   56.6629   37.7196 c6         1 CLA     -0.046000
     48 C5         83.9945   52.3525   36.9734 a2         1 CLA     -0.070400
     49 C6         85.2809   53.1444   37.0972 a2         1 CLA      0.043900
     50 C7         85.4334   53.8231   38.4964 a2         1 CLA     -0.150000
     51 C8         86.5759   54.8819   38.6010 a1         1 CLA      0.064200
     52 C9         87.9877   54.2130   38.4259 a3         1 CLA     -0.259300
     53 C10        86.5761   55.6283   39.9405 a2         1 CLA     -0.071900
     54 C11        85.4838   56.7817   39.9560 a2         1 CLA      0.014500
     55 C12        85.4478   57.6259   41.2326 a2         1 CLA     -0.112100
     56 C13        85.1062   56.8224   42.5011 a1         1 CLA      0.089200
     57 C14        83.8064   55.9960   42.3989 a3         1 CLA     -0.239100
     58 C15        85.0375   57.7396   43.7573 a2         1 CLA     -0.102200
     59 C16        83.8902   58.6443   44.0312 a2         1 CLA      0.023900
     60 C17        84.0834   59.1863   45.4449 a2         1 CLA     -0.105700
     61 C18        83.3794   60.5537   45.8389 a1         1 CLA      0.206800
     62 C19        81.8077   60.4311   45.8991 a3         1 CLA     -0.280100
     63 C20        83.9018   61.0005   47.2498 a3         1 CLA     -0.280100
     64 NC         74.1824   58.4836   41.3915 nx         1 CLA     -0.309200
     65 MG         75.6222   58.5377   39.8251 mg         1 CLA      0.895000
     66 HMD3       71.4451   54.5981   36.9866 dc         1 CLA      0.064300
     67 HMD2       71.2764   54.4750   38.7652 dc         1 CLA      0.064300
     68 HMD1       70.5832   55.9801   37.7772 dc         1 CLA      0.064300
     69 HMC3       72.6089   60.1996   45.1128 dc         1 CLA      0.052100
     70 HMC2       72.3515   58.5118   45.4785 dc         1 CLA      0.052100
     71 HMC1       73.9691   59.2045   45.4702 dc         1 CLA      0.052100
     72 HMB3       80.4987   60.8985   42.8947 dc         1 CLA      0.063600
     73 HMB2       80.9269   60.4424   41.3064 dc         1 CLA      0.063600
     74 HMB1       80.4486   62.2131   41.8159 dc         1 CLA      0.063600
     75 HMA3       81.2695   56.7693   37.6217 dc         1 CLA      0.058300
     76 HMA2       80.9898   57.7431   39.0633 dc         1 CLA      0.058300
     77 HMA1       80.1428   56.2770   38.8990 dc         1 CLA      0.058300
     78 HED3       78.0942   52.7240   35.2592 dc         1 CLA      0.079300
     79 HED2       78.5328   52.7618   36.9710 dc         1 CLA      0.079300
     80 HED1       77.0608   51.7927   36.5885 dc         1 CLA      0.079300
     81 HBC3       71.5453   55.0544   42.4417 dc         1 CLA      0.016300
     82 HBC2       72.7643   55.5440   43.7886 dc         1 CLA      0.016300
     83 HBC1       71.0438   55.1051   44.1560 dc         1 CLA      0.016300
     84 HBB2       78.4959   62.9686   45.6057 da         1 CLA      0.183000
     85 HBB1       78.9145   63.1517   43.6762 da         1 CLA      0.183000
     86 HBA2       79.9911   58.3816   33.6431 dc         1 CLA      0.029400
     87 HBA1       80.5569   58.3550   35.2409 dc         1 CLA      0.029400
     88 HAC2       70.9645   57.4251   44.2898 dc         1 CLA      0.029300
     89 HAC1       70.4303   57.0163   42.6622 dc         1 CLA      0.029300
     90 HAA2       77.7335   57.4170   34.6360 dc         1 CLA      0.028700
     91 HAA1       78.2743   58.9384   35.2289 dc         1 CLA      0.028700
     92 H203       83.1407   61.6240   47.6888 dc         1 CLA      0.065600
     93 H202       84.1382   60.2373   47.8753 dc         1 CLA      0.065600
     94 H201       84.8321   61.5599   47.2175 dc         1 CLA      0.065600
     95 H193       81.6461   59.7232   46.6772 dc         1 CLA      0.065600
     96 H192       81.4099   61.3448   46.0518 dc         1 CLA      0.065600
     97 H191       81.4441   60.1429   44.9275 dc         1 CLA      0.065600
     98 H172       83.9405   58.3956   46.1645 dc         1 CLA      0.027600
     99 H171       85.1145   59.5577   45.5960 dc         1 CLA      0.027600
    100 H162       83.9073   59.4834   43.3025 dc         1 CLA      0.002900
    101 H161       82.9801   58.1301   43.8908 dc         1 CLA      0.002900
    102 H152       85.1049   57.1220   44.5953 dc         1 CLA      0.029100
    103 H151       86.0015   58.2962   43.7151 dc         1 CLA      0.029100
    104 H143       83.0800   56.5533   41.9178 dc         1 CLA      0.063600
    105 H142       83.9350   55.1413   41.8652 dc         1 CLA      0.063600
    106 H141       83.4264   55.7267   43.3710 dc         1 CLA      0.063600
    107 H122       86.4087   58.1625   41.3412 dc         1 CLA      0.032500
    108 H121       84.7850   58.4024   41.0566 dc         1 CLA      0.032500
    109 H112       85.6570   57.5740   39.1686 dc         1 CLA      0.006600
    110 H111       84.4623   56.3631   39.6632 dc         1 CLA      0.006600
    111 H102       86.4946   55.0140   40.8041 dc         1 CLA      0.024100
    112 H101       87.5490   56.1257   40.0312 dc         1 CLA      0.024100
    113 HHD        71.4625   56.7713   40.4994 da         1 CLA      0.174300
    114 HHC        75.5354   60.1305   44.0890 da         1 CLA      0.136800
    115 HHB        79.9721   59.6178   39.5742 da         1 CLA      0.138300
    116 HBD        75.5293   56.5364   34.8726 dc         1 CLA      0.107700
    117 HAB        77.6505   60.7664   45.1070 da         1 CLA      0.155200
    118 H93        88.7460   55.0223   38.4312 dc         1 CLA      0.069500
    119 H92        88.3181   53.4427   39.1100 dc         1 CLA      0.069500
    120 H91        87.9891   53.6728   37.4282 dc         1 CLA      0.069500
    121 H8         86.4247   55.7159   37.8743 dc         1 CLA      0.029300
    122 H72        84.5794   54.3324   38.7870 dc         1 CLA      0.044400
    123 H71        85.7180   53.0388   39.3017 dc         1 CLA      0.044400
    124 H62        86.1254   52.4698   36.9582 dc         1 CLA      0.015600
    125 H61        85.5223   53.9222   36.3543 dc         1 CLA      0.015600
    126 H52        83.9546   51.6182   37.7130 dc         1 CLA      0.033200
    127 H51        83.8833   51.7901   36.0443 dc         1 CLA      0.033200
    128 H43        81.3940   53.8599   38.7529 dc         1 CLA      0.037000
    129 H42        81.1223   52.1890   38.0940 dc         1 CLA      0.037000
    130 H41        82.3074   52.5777   39.3364 dc         1 CLA      0.037000
    131 H3A        79.9508   58.9215   37.1830 dc         1 CLA      0.041100
    132 H2A        78.6160   56.3225   36.4791 dc         1 CLA      0.083100
    133 H2         83.2084   55.3880   36.6882 da         1 CLA      0.180900
    134 H18        83.7242   61.2684   45.0358 dc         1 CLA     -0.003900
    135 H13        85.9452   56.1546   42.6520 dc         1 CLA      0.019700
    136 H12        81.0625   53.7857   35.2552 dc         1 CLA      0.120400
    137 H11        82.1724   54.4384   34.2794 dc         1 CLA      0.120400
    138 C1         68.0329   61.0275   50.6010 Z1         2 LUT      0.509236
    139 C2         66.6875   61.0512   51.4420 Z2         2 LUT     -0.434695
    140 C3         65.8542   62.3263   51.3323 Z3         2 LUT      0.437453
    141 O3         65.6563   62.9967   52.5971 S1         2 LUT     -0.547129
    142 C4         66.5574   63.3008   50.3521 Z4         2 LUT     -0.468603
    143 C5         67.1631   62.7416   49.0933 Z5         2 LUT      0.279246
    144 C6         67.9131   61.6172   49.1786 Z6         2 LUT     -0.305473
    145 C7         68.2554   60.9541   47.9665 Z7         2 LUT      0.069402
    146 C8         69.0375   61.4967   46.9823 Z8         2 LUT     -0.191631
    147 C9         69.5806   61.1127   45.6890 Z9         2 LUT      0.196698
    148 C10        70.4204   62.0083   45.0450 Y1         2 LUT     -0.208611
    149 C11        71.1482   61.9043   43.8569 Y2         2 LUT      0.030784
    150 C12        72.1587   62.7536   43.5304 Y3         2 LUT     -0.220316
    151 C13        73.1634   62.7809   42.5170 Y4         2 LUT      0.215937
    152 C14        74.3169   63.4768   42.6792 Y5         2 LUT     -0.185793
    153 C15        75.4855   63.4112   41.8540 Y6         2 LUT     -0.057835
    154 C16        68.4511   59.5670   50.5369 Y7         2 LUT     -0.405615
    155 C17        69.0293   61.7963   51.5671 Y7         2 LUT     -0.405615
    156 C18        66.5713   63.3596   47.8015 Y9         2 LUT     -0.369639
    157 C19        69.2591   59.7280   45.2120 W1         2 LUT     -0.333362
    158 C20        72.7837   61.9674   41.2836 W2         2 LUT     -0.323439
    159 C21        87.0336   64.9099   35.9667 Z1         2 LUT      0.406104
    160 C22        87.8182   64.6136   34.7142 Z2         2 LUT     -0.404965
    161 C23        87.8249   65.6536   33.6195 Z3         2 LUT      0.391255
    162 O23        88.5529   65.1132   32.5519 S1         2 LUT     -0.528210
    163 C24        86.5002   66.2399   33.4524 W6         2 LUT     -0.258361
    164 C25        85.4637   66.2207   34.3047 Z5         2 LUT      0.133546
    165 C26        85.5648   65.3223   35.6073 W8         2 LUT     -0.147008
    166 C27        84.9319   65.9347   36.8863 Z7         2 LUT      0.023843
    167 C28        83.7477   65.5005   37.3834 Z8         2 LUT     -0.216987
    168 C29        83.0181   66.0011   38.5577 Z9         2 LUT      0.206524
    169 C30        81.9313   65.3452   39.0804 Y1         2 LUT     -0.215556
    170 C31        81.1614   65.5690   40.2212 Y2         2 LUT      0.025142
    171 C32        79.9355   64.8696   40.3514 Y3         2 LUT     -0.212209
    172 C33        79.0357   64.8690   41.4695 Y4         2 LUT      0.240937
    173 C34        77.8002   64.2595   41.3514 Y5         2 LUT     -0.218862
    174 C35        76.5756   64.1957   42.1252 Y6         2 LUT     -0.023547
    175 C36        87.7999   65.9349   36.7424 Y7         2 LUT     -0.393485
    176 C37        87.0921   63.6803   36.9167 Y7         2 LUT     -0.393485
    177 C38        84.1675   66.9960   34.0018 Y9         2 LUT     -0.387526
    178 C39        83.4342   67.2858   39.2156 W1         2 LUT     -0.322618
    179 C40        79.4534   65.5830   42.7459 W2         2 LUT     -0.358472
    180 H403       78.7375   65.7208   43.5671 R7         2 LUT      0.097720
    181 H402       80.2058   65.0229   43.2779 R7         2 LUT      0.097720
    182 H401       79.7893   66.5554   42.5445 R7         2 LUT      0.097720
    183 H393       83.2510   68.1551   38.5844 R4         2 LUT      0.082505
    184 H392       82.8794   67.4202   40.0966 R4         2 LUT      0.082505
    185 H391       84.4689   67.1347   39.5695 R4         2 LUT      0.082505
    186 H383       83.3639   66.6881   34.6581 R1         2 LUT      0.104030
    187 H382       84.3927   68.0141   34.0363 R1         2 LUT      0.104030
    188 H381       83.7846   66.6415   33.0659 R1         2 LUT      0.104030
    189 H373       86.4611   63.8225   37.7945 T4         2 LUT      0.089537
    190 H372       86.6143   62.9000   36.3121 T4         2 LUT      0.089537
    191 H371       88.0991   63.4063   37.1379 T4         2 LUT      0.089537
    192 H363       88.7719   65.5511   36.9485 T4         2 LUT      0.089537
    193 H362       87.9574   66.7830   36.1061 T4         2 LUT      0.089537
    194 H361       87.5005   66.1813   37.7639 T4         2 LUT      0.089537
    195 H222       88.8674   64.3593   35.0187 U2         2 LUT      0.127376
    196 H221       87.5214   63.6833   34.3276 U2         2 LUT      0.127376
    197 H203       72.1048   61.1286   41.5404 R7         2 LUT      0.087068
    198 H202       72.4996   62.4890   40.3991 R7         2 LUT      0.087068
    199 H201       73.6906   61.4753   41.0013 R7         2 LUT      0.087068
    200 H193       69.7302   58.9168   45.7958 R4         2 LUT      0.089716
    201 H192       68.1762   59.4523   45.2155 R4         2 LUT      0.089716
    202 H191       69.4731   59.4571   44.2014 R4         2 LUT      0.089716
    203 H183       65.4834   63.2580   47.7599 R1         2 LUT      0.094572
    204 H182       66.8047   64.4600   47.6679 R1         2 LUT      0.094572
    205 H181       66.9012   62.7750   46.9913 R1         2 LUT      0.094572
    206 H173       68.8774   62.8638   51.8307 T4         2 LUT      0.093752
    207 H172       69.0976   61.2775   52.5660 T4         2 LUT      0.093752
    208 H171       70.1446   61.7297   51.2478 T4         2 LUT      0.093752
    209 H163       67.7538   58.9474   49.9777 T4         2 LUT      0.093752
    210 H162       69.4311   59.4596   50.0643 T4         2 LUT      0.093752
    211 H161       68.6251   59.0961   51.4855 T4         2 LUT      0.093752
    212 HO3        64.9928   62.4766   53.1140 Q1         2 LUT      0.300121
    213 H8         69.4847   62.5343   47.2641 U7         2 LUT      0.080784
    214 H7         67.9854   59.9269   47.9149 U6         2 LUT      0.042190
    215 H42        65.8076   64.1094   50.1760 U5         2 LUT      0.145166
    216 H41        67.2322   63.9197   50.8632 U5         2 LUT      0.145166
    217 H35        76.4545   64.7188   43.0886 T3         2 LUT      0.077919
    218 H34        77.6376   63.9617   40.3676 T2         2 LUT      0.073626
    219 H32        79.6406   64.3035   39.4418 T1         2 LUT      0.092510
    220 H31        81.3625   66.3180   40.9846 U9         2 LUT      0.070048
    221 H30        81.6512   64.5252   38.3833 U8         2 LUT      0.085442
    222 H3         64.9782   62.1511   50.6133 U3         2 LUT     -0.031596
    223 H28        83.3243   64.7062   36.8089 U7         2 LUT      0.084728
    224 H27        85.4259   66.7235   37.4403 U6         2 LUT      0.087291
    225 H26        85.0883   64.3371   35.3848 Q6         2 LUT      0.075325
    226 H24        86.5621   66.8295   32.5576 Q5         2 LUT      0.094482
    227 H23        88.4953   66.4373   34.0130 U3         2 LUT     -0.024869
    228 H22        65.9141   60.3528   51.0793 U2         2 LUT      0.127376
    229 H21        66.7820   60.7206   52.5221 U2         2 LUT      0.127376
    230 H15        75.5986   62.6822   41.0761 T3         2 LUT      0.093200
    231 H14        74.4689   64.0192   43.5554 T2         2 LUT      0.068865
    232 H12        72.3431   63.5504   44.3141 T1         2 LUT      0.095507
    233 H11        70.9278   60.9615   43.4150 U9         2 LUT      0.068930
    234 H10        70.5047   62.9550   45.5581 U8         2 LUT      0.083911
    235 H1         88.0795   64.5867   31.8801 Q1         2 LUT      0.297311
@<TRIPOS>BOND
    1     6     1 1
    2     7     2 1
    3     8     3 1
    4     9     4 1
    5    11     4 1
    6    12     6 1
    7    13     9 1
    8    16     9 1
    9    25     5 1
   10    25    16 1
   11    26    10 1
   12    26    17 1
   13    27    18 1
   14    28    14 1
   15    28    19 1
   16    29    12 1
   17    30    13 1
   18    31    24 1
   19    32     1 1
   20    32    25 1
   21    33    21 1
   22    33    26 1
   23    34    22 1
   24    34    27 1
   25    35    23 1
   26    35    28 1
   27    36    12 1
   28    36    24 1
   29    37    13 1
   30    37    15 1
   31    38    31 1
   32    39    20 1
   33    39    32 1
   34    40     2 1
   35    40    33 1
   36    41     3 1
   37    41    34 1
   38    42     4 1
   39    42    35 1
   40    43    38 1
   41    44     5 1
   42    44    17 1
   43    44    39 1
   44    45    10 1
   45    45    18 1
   46    45    40 1
   47    46    19 1
   48    46    41 1
   49    47    14 1
   50    47    16 1
   51    47    42 1
   52    48    38 1
   53    49    48 1
   54    50    49 1
   55    51    50 1
   56    52    51 1
   57    53    51 1
   58    54    53 1
   59    55    54 1
   60    56    55 1
   61    57    56 1
   62    58    56 1
   63    59    58 1
   64    60    59 1
   65    61    60 1
   66    62    61 1
   67    63    61 1
   68    64    27 1
   69    64    46 1
   70    65     5 1
   71    65    10 1
   72    65    64 1
   73    65    14 1
   74    66    23 1
   75    67    23 1
   76    68    23 1
   77    69    22 1
   78    70    22 1
   79    71    22 1
   80    72    21 1
   81    73    21 1
   82    74    21 1
   83    75    20 1
   84    76    20 1
   85    77    20 1
   86    78    15 1
   87    79    15 1
   88    80    15 1
   89    81     8 1
   90    82     8 1
   91    83     8 1
   92    84     7 1
   93    85     7 1
   94    86     6 1
   95    87     6 1
   96    88     3 1
   97    89     3 1
   98    90     1 1
   99    91     1 1
  100    92    63 1
  101    93    63 1
  102    94    63 1
  103    95    62 1
  104    96    62 1
  105    97    62 1
  106    98    60 1
  107    99    60 1
  108   100    59 1
  109   101    59 1
  110   102    58 1
  111   103    58 1
  112   104    57 1
  113   105    57 1
  114   106    57 1
  115   107    55 1
  116   108    55 1
  117   109    54 1
  118   110    54 1
  119   111    53 1
  120   112    53 1
  121   113    19 1
  122   114    18 1
  123   115    17 1
  124   116     9 1
  125   117     2 1
  126   118    52 1
  127   119    52 1
  128   120    52 1
  129   121    51 1
  130   122    50 1
  131   123    50 1
  132   124    49 1
  133   125    49 1
  134   126    48 1
  135   127    48 1
  136   128    43 1
  137   129    43 1
  138   130    43 1
  139   131    39 1
  140   132    32 1
  141   133    31 1
  142   134    61 1
  143   135    56 1
  144   136    24 1
  145   137    24 1
  146   139   138 1
  147   140   139 1
  148   141   140 1
  149   142   140 1
  150   143   142 1
  151   144   138 1
  152   144   143 1
  153   145   144 1
  154   146   145 1
  155   147   146 1
  156   148   147 1
  157   149   148 1
  158   150   149 1
  159   151   150 1
  160   152   151 1
  161   153   152 1
  162   154   138 1
  163   155   138 1
  164   156   143 1
  165   157   147 1
  166   158   151 1
  167   160   159 1
  168   161   160 1
  169   162   161 1
  170   163   161 1
  171   164   163 1
  172   165   159 1
  173   165   164 1
  174   166   165 1
  175   167   166 1
  176   168   167 1
  177   169   168 1
  178   170   169 1
  179   171   170 1
  180   172   171 1
  181   173   172 1
  182   174   153 1
  183   174   173 1
  184   175   159 1
  185   176   159 1
  186   177   164 1
  187   178   168 1
  188   179   172 1
  189   180   179 1
  190   181   179 1
  191   182   179 1
  192   183   178 1
  193   184   178 1
  194   185   178 1
  195   186   177 1
  196   187   177 1
  197   188   177 1
  198   189   176 1
  199   190   176 1
  200   191   176 1
  201   192   175 1
  202   193   175 1
  203   194   175 1
  204   195   160 1
  205   196   160 1
  206   197   158 1
  207   198   158 1
  208   199   158 1
  209   200   157 1
  210   201   157 1
  211   202   157 1
  212   203   156 1
  213   204   156 1
  214   205   156 1
  215   206   155 1
  216   207   155 1
  217   208   155 1
  218   209   154 1
  219   210   154 1
  220   211   154 1
  221   212   141 1
  222   213   146 1
  223   214   145 1
  224   215   142 1
  225   216   142 1
  226   217   174 1
  227   218   173 1
  228   219   171 1
  229   220   170 1
  230   221   169 1
  231   222   140 1
  232   223   167 1
  233   224   166 1
  234   225   165 1
  235   226   163 1
  236   227   161 1
  237   228   139 1
  238   229   139 1
  239   230   153 1
  240   231   152 1
  241   232   150 1
  242   233   149 1
  243   234   148 1
  244   235   162 1
  245   65    153 1
  246   65    174 1
@<TRIPOS>SUBSTRUCTURE
      1 CLA               1 ****               0 ****  **** 
      2 LUT             138 ****               0 ****  **** 
