@<TRIPOS>MOLECULE
Cpptraj generated mol2 file.
  235   246     2     0     0
SMALL
USER_CHARGES


@<TRIPOS>ATOM
      1 CAA        77.9122   57.7436   34.6182 a2         1 CLA     -0.055900
      2 CAB        78.0393   62.1802   43.1870 c8         1 CLA     -0.148500
      3 CAC        71.3509   58.0953   43.2986 a2         1 CLA     -0.012600
      4 CAD        73.9998   54.9637   36.3303 ck         1 CLA      0.398800
      5 NA         77.0455   58.4267   38.0604 ns         1 CLA     -0.225500
      6 CBA        79.0728   57.4867   33.7740 a2         1 CLA     -0.135000
      7 CBB        79.2282   62.1118   43.8153 c0         1 CLA     -0.395200
      8 CBC        71.3688   56.6039   43.4485 a3         1 CLA     -0.037700
      9 CBD        75.5159   55.3355   36.0394 a1         1 CLA     -0.053900
     10 NB         76.8901   60.1728   40.3479 nm         1 CLA     -0.295700
     11 OBD        73.3479   54.1314   35.7234 o2         1 CLA     -0.494600
     12 CGA        79.4716   55.9833   33.5135 c4         1 CLA      0.827000
     13 CGD        76.4412   54.1286   36.2227 c4         1 CLA      0.655300
     14 ND         74.2857   57.4756   38.7356 nm         1 CLA     -0.291600
     15 CED        76.8301   52.0329   37.3621 a3         1 CLA      0.005400
     16 CHA        75.8221   56.5791   36.9167 cs         1 CLA     -0.123800
     17 CHB        78.6872   60.1611   38.6398 aa         1 CLA     -0.291900
     18 CHC        75.7858   60.3371   42.4848 aa         1 CLA     -0.090400
     19 CHD        72.3505   57.6560   40.2904 aa         1 CLA     -0.052000
     20 CMA        80.4292   57.9030   37.2927 a3         1 CLA     -0.230700
     21 CMB        80.1813   61.9485   40.5331 a3         1 CLA     -0.180800
     22 CMC        73.6368   59.7421   44.7413 a3         1 CLA     -0.134000
     23 CMD        71.1159   55.3257   38.1570 a3         1 CLA     -0.141100
     24 C1         80.5889   54.0781   34.3376 a2         1 CLA      0.023000
     25 C1A        76.9462   57.4660   37.0569 ac         1 CLA     -0.015100
     26 C1B        78.1266   60.6438   39.8488 cr         1 CLA      0.054700
     27 C1C        74.5990   59.5664   42.2919 cn         1 CLA     -0.005600
     28 C1D        72.9473   57.0601   39.0922 ap         1 CLA     -0.047300
     29 O1A        79.1207   55.3515   32.5788 o2         1 CLA     -0.610800
     30 O1D        77.5090   53.9849   35.6800 o2         1 CLA     -0.558200
     31 C2         81.1078   53.4460   35.6818 c8         1 CLA     -0.325100
     32 C2A        78.2382   57.4291   36.0680 a1         1 CLA      0.098600
     33 C2B        78.7930   61.4630   40.7890 cb         1 CLA      0.088500
     34 C2C        73.5485   59.3634   43.2795 cb         1 CLA      0.053700
     35 C2D        72.4956   56.0192   38.2205 cb         1 CLA      0.058900
     36 O2A        80.3239   55.4920   34.5013 o1         1 CLA     -0.437200
     37 O2D        75.8896   53.1438   37.0514 o1         1 CLA     -0.357600
     38 C3         82.3242   53.5698   36.1628 c5         1 CLA      0.031200
     39 C3A        79.1353   58.5600   36.7482 a1         1 CLA      0.166800
     40 C3B        77.9067   61.5907   41.8746 cb         1 CLA      0.035000
     41 C3C        72.5520   58.5831   42.6167 cb         1 CLA     -0.089900
     42 C3D        73.5904   55.8054   37.4253 cb         1 CLA     -0.035900
     43 C4         83.3532   52.5685   35.7275 a3         1 CLA     -0.053300
     44 C4A        78.2579   59.0951   37.8988 ac         1 CLA      0.001800
     45 C4B        76.7790   60.7236   41.5858 cn         1 CLA     -0.020900
     46 C4C        73.0404   58.4100   41.2849 cr         1 CLA     -0.044400
     47 C4D        74.6465   56.7083   37.7305 c6         1 CLA     -0.046000
     48 C5         82.6804   54.6878   37.1715 a2         1 CLA     -0.070400
     49 C6         83.8679   54.4223   38.0012 a2         1 CLA      0.043900
     50 C7         83.9053   55.3655   39.2606 a2         1 CLA     -0.150000
     51 C8         83.7142   56.9974   38.9246 a1         1 CLA      0.064200
     52 C9         84.7999   57.5252   37.9753 a3         1 CLA     -0.259300
     53 C10        83.6802   57.8421   40.2110 a2         1 CLA     -0.071900
     54 C11        82.9780   57.2890   41.4511 a2         1 CLA      0.014500
     55 C12        82.7302   58.2966   42.6456 a2         1 CLA     -0.112100
     56 C13        83.9615   59.1323   43.1093 a1         1 CLA      0.089200
     57 C14        85.0440   58.3485   43.8192 a3         1 CLA     -0.239100
     58 C15        83.4745   60.4025   43.9281 a2         1 CLA     -0.102200
     59 C16        82.4631   60.3345   45.0780 a2         1 CLA      0.023900
     60 C17        82.1141   61.6818   45.6886 a2         1 CLA     -0.105700
     61 C18        83.1490   62.1504   46.7740 a1         1 CLA      0.206800
     62 C19        82.8083   63.5718   47.2314 a3         1 CLA     -0.280100
     63 C20        83.4642   61.1789   47.9196 a3         1 CLA     -0.280100
     64 NC         74.2796   58.8931   41.1154 nx         1 CLA     -0.309200
     65 MG         75.5283   58.8556   39.5424 mg         1 CLA      0.895000
     66 HMD3       71.0494   54.6283   37.2741 dc         1 CLA      0.064300
     67 HMD2       70.7867   54.8789   39.1142 dc         1 CLA      0.064300
     68 HMD1       70.3785   56.0669   37.8487 dc         1 CLA      0.064300
     69 HMC3       72.8241   60.4487   45.0076 dc         1 CLA      0.052100
     70 HMC2       73.6986   58.8357   45.3746 dc         1 CLA      0.052100
     71 HMC1       74.3661   60.4492   45.0248 dc         1 CLA      0.052100
     72 HMB3       80.3642   62.4712   39.5894 dc         1 CLA      0.063600
     73 HMB2       80.4604   62.6363   41.3130 dc         1 CLA      0.063600
     74 HMB1       80.8267   61.1544   40.6342 dc         1 CLA      0.063600
     75 HMA3       81.0705   57.4691   36.4726 dc         1 CLA      0.058300
     76 HMA2       80.9887   58.6392   37.7817 dc         1 CLA      0.058300
     77 HMA1       80.2725   57.1135   38.0408 dc         1 CLA      0.058300
     78 HED3       76.9735   51.5016   36.4301 dc         1 CLA      0.079300
     79 HED2       77.7980   52.4585   37.6666 dc         1 CLA      0.079300
     80 HED1       76.5154   51.2835   38.0920 dc         1 CLA      0.079300
     81 HBC3       70.4962   56.1827   44.0085 dc         1 CLA      0.016300
     82 HBC2       71.3164   56.1743   42.4574 dc         1 CLA      0.016300
     83 HBC1       72.3141   56.2391   43.7226 dc         1 CLA      0.016300
     84 HBB2       79.3911   62.3595   44.8354 da         1 CLA      0.183000
     85 HBB1       80.0588   61.5141   43.3680 da         1 CLA      0.183000
     86 HBA2       78.9061   57.8462   32.7558 dc         1 CLA      0.029400
     87 HBA1       79.9283   57.9744   34.0726 dc         1 CLA      0.029400
     88 HAC2       71.2769   58.5858   44.2436 dc         1 CLA      0.029300
     89 HAC1       70.4738   58.5038   42.7927 dc         1 CLA      0.029300
     90 HAA2       77.1368   57.1818   34.1499 dc         1 CLA      0.028700
     91 HAA1       77.6907   58.7765   34.5804 dc         1 CLA      0.028700
     92 H203       83.9815   61.5968   48.8201 dc         1 CLA      0.065600
     93 H202       82.5988   60.5787   48.1902 dc         1 CLA      0.065600
     94 H201       84.1931   60.4556   47.5251 dc         1 CLA      0.065600
     95 H193       82.6611   64.1470   46.3016 dc         1 CLA      0.065600
     96 H192       81.8964   63.6267   47.8685 dc         1 CLA      0.065600
     97 H191       83.6612   63.9602   47.7040 dc         1 CLA      0.065600
     98 H172       82.1471   62.4542   44.9785 dc         1 CLA      0.027600
     99 H171       81.1403   61.6207   46.1620 dc         1 CLA      0.027600
    100 H162       81.4858   59.9757   44.6523 dc         1 CLA      0.002900
    101 H161       82.8138   59.6699   45.8975 dc         1 CLA      0.002900
    102 H152       84.3491   60.8362   44.3504 dc         1 CLA      0.029100
    103 H151       83.0868   61.2188   43.2934 dc         1 CLA      0.029100
    104 H143       85.2598   57.4500   43.2002 dc         1 CLA      0.063600
    105 H142       85.9700   58.8069   43.9731 dc         1 CLA      0.063600
    106 H141       84.8159   58.0215   44.8570 dc         1 CLA      0.063600
    107 H122       81.9592   58.9761   42.3499 dc         1 CLA      0.032500
    108 H121       82.1768   57.7040   43.4543 dc         1 CLA      0.032500
    109 H112       82.1335   56.7394   41.0402 dc         1 CLA      0.006600
    110 H111       83.6978   56.4874   41.7245 dc         1 CLA      0.006600
    111 H102       84.6420   58.1654   40.5174 dc         1 CLA      0.024100
    112 H101       83.3068   58.8199   39.8558 dc         1 CLA      0.024100
    113 HHD        71.2976   57.3883   40.3949 da         1 CLA      0.174300
    114 HHC        75.9886   60.6620   43.5596 da         1 CLA      0.136800
    115 HHB        79.6484   60.6094   38.2798 da         1 CLA      0.138300
    116 HBD        75.5514   55.6730   34.9912 dc         1 CLA      0.107700
    117 HAB        77.2748   62.7322   43.7405 da         1 CLA      0.155200
    118 H93        85.8327   57.2606   38.3804 dc         1 CLA      0.069500
    119 H92        84.5782   57.0248   37.0934 dc         1 CLA      0.069500
    120 H91        84.8702   58.6342   37.9180 dc         1 CLA      0.069500
    121 H8         82.8371   57.1076   38.3529 dc         1 CLA      0.029300
    122 H72        83.2449   54.9735   40.0322 dc         1 CLA      0.044400
    123 H71        84.8785   55.2501   39.6637 dc         1 CLA      0.044400
    124 H62        83.8195   53.3346   38.2726 dc         1 CLA      0.015600
    125 H61        84.6971   54.6064   37.3131 dc         1 CLA      0.015600
    126 H52        82.9373   55.6334   36.6970 dc         1 CLA      0.033200
    127 H51        81.8490   54.6075   37.9029 dc         1 CLA      0.033200
    128 H43        83.3587   51.8431   36.5374 dc         1 CLA      0.037000
    129 H42        83.0019   52.1292   34.8029 dc         1 CLA      0.037000
    130 H41        84.2477   53.1091   35.4412 dc         1 CLA      0.037000
    131 H3A        79.4959   59.2817   36.0191 dc         1 CLA      0.041100
    132 H2A        78.7365   56.5200   36.1929 dc         1 CLA      0.083100
    133 H2         80.5019   52.7638   36.2227 da         1 CLA      0.180900
    134 H18        84.0645   62.2162   46.2316 dc         1 CLA     -0.003900
    135 H13        84.4222   59.5891   42.2066 dc         1 CLA      0.019700
    136 H12        79.6010   53.6326   34.2405 dc         1 CLA      0.120400
    137 H11        81.1816   53.7670   33.4559 dc         1 CLA      0.120400
    138 C1         67.4876   62.3810   50.5673 Z1         2 LUT      0.509236
    139 C2         67.4001   63.6866   51.4351 Z2         2 LUT     -0.434695
    140 C3         66.0416   64.4813   51.3786 Z3         2 LUT      0.437453
    141 O3         66.3289   65.8524   51.6372 S1         2 LUT     -0.547129
    142 C4         65.5448   64.3578   49.9368 Z4         2 LUT     -0.468603
    143 C5         66.3823   63.7118   48.8617 Z5         2 LUT      0.279246
    144 C6         67.2152   62.7010   49.1385 Z6         2 LUT     -0.305473
    145 C7         68.1907   62.0842   48.1777 Z7         2 LUT      0.069402
    146 C8         68.9026   62.6349   47.1789 Z8         2 LUT     -0.191631
    147 C9         69.7936   61.9507   46.1224 Z9         2 LUT      0.196698
    148 C10        70.5632   62.7523   45.2874 Y1         2 LUT     -0.208611
    149 C11        71.3615   62.4315   44.1045 Y2         2 LUT      0.030784
    150 C12        72.4183   63.2176   43.8028 Y3         2 LUT     -0.220316
    151 C13        73.3336   63.1530   42.6008 Y4         2 LUT      0.215937
    152 C14        74.4188   63.9389   42.4915 Y5         2 LUT     -0.185793
    153 C15        75.3422   64.0341   41.4174 Y6         2 LUT     -0.057835
    154 C16        66.4583   61.4841   51.3083 Y7         2 LUT     -0.405615
    155 C17        68.9068   61.8247   50.9258 Y7         2 LUT     -0.405615
    156 C18        66.1391   64.4407   47.5455 Y9         2 LUT     -0.369639
    157 C19        69.5561   60.5300   45.7097 W1         2 LUT     -0.333362
    158 C20        72.7968   62.3817   41.3216 W2         2 LUT     -0.323439
    159 C21        86.6041   64.8463   35.4499 Z1         2 LUT      0.406104
    160 C22        87.1782   64.0703   34.2576 Z2         2 LUT     -0.404965
    161 C23        87.3634   64.8313   32.9319 Z3         2 LUT      0.391255
    162 O23        88.0735   64.0007   32.0235 S1         2 LUT     -0.528210
    163 C24        86.0547   65.5705   32.6183 W6         2 LUT     -0.258361
    164 C25        85.1236   65.9055   33.5202 Z5         2 LUT      0.133546
    165 C26        85.1684   65.3531   34.9297 W8         2 LUT     -0.147008
    166 C27        84.5024   66.2886   35.8966 Z7         2 LUT      0.023843
    167 C28        83.3755   65.9015   36.5403 Z8         2 LUT     -0.216987
    168 C29        82.7707   66.4796   37.7187 Z9         2 LUT      0.206524
    169 C30        81.8148   65.7689   38.3403 Y1         2 LUT     -0.215556
    170 C31        80.9852   65.9571   39.5016 Y2         2 LUT      0.025142
    171 C32        79.8097   65.2641   39.6873 Y3         2 LUT     -0.212209
    172 C33        78.8045   65.3694   40.7307 Y4         2 LUT      0.240937
    173 C34        77.6298   64.6438   40.6002 Y5         2 LUT     -0.218862
    174 C35        76.5656   64.5736   41.5667 Y6         2 LUT     -0.023547
    175 C36        87.6248   65.8343   35.9702 Y7         2 LUT     -0.393485
    176 C37        86.4459   63.7778   36.5999 Y7         2 LUT     -0.393485
    177 C38        83.8669   66.7043   33.1329 Y9         2 LUT     -0.387526
    178 C39        83.4075   67.4982   38.5395 W1         2 LUT     -0.322618
    179 C40        78.8936   66.5234   41.6436 W2         2 LUT     -0.358472
    180 H403       79.8718   66.8258   41.9762 R7         2 LUT      0.097720
    181 H402       78.3637   67.3722   41.2289 R7         2 LUT      0.097720
    182 H401       78.3846   66.4056   42.6285 R7         2 LUT      0.097720
    183 H393       84.0883   67.0563   39.1977 R4         2 LUT      0.082505
    184 H392       84.0729   68.1477   38.0169 R4         2 LUT      0.082505
    185 H391       82.7816   68.2115   39.0528 R4         2 LUT      0.082505
    186 H383       83.1647   66.1730   32.4629 R1         2 LUT      0.104030
    187 H382       83.1613   67.0138   33.9102 R1         2 LUT      0.104030
    188 H381       84.2255   67.5846   32.5353 R1         2 LUT      0.104030
    189 H373       85.9893   64.0822   37.4877 T4         2 LUT      0.089537
    190 H372       85.8581   62.9426   36.1652 T4         2 LUT      0.089537
    191 H371       87.3055   63.3201   36.9980 T4         2 LUT      0.089537
    192 H363       87.8341   66.4904   35.1483 T4         2 LUT      0.089537
    193 H362       87.3533   66.4279   36.8726 T4         2 LUT      0.089537
    194 H361       88.5592   65.2781   36.2728 T4         2 LUT      0.089537
    195 H222       88.1939   63.5686   34.4426 U2         2 LUT      0.127376
    196 H221       86.4384   63.2454   33.9666 U2         2 LUT      0.127376
    197 H203       71.8538   61.8758   41.4436 R7         2 LUT      0.087068
    198 H202       72.6869   63.1443   40.5644 R7         2 LUT      0.087068
    199 H201       73.5153   61.6300   41.0177 R7         2 LUT      0.087068
    200 H193       68.5973   60.1565   45.9356 R4         2 LUT      0.089716
    201 H192       69.5807   60.4542   44.6017 R4         2 LUT      0.089716
    202 H191       70.3570   59.8229   46.1151 R4         2 LUT      0.089716
    203 H183       65.1799   64.9338   47.5720 R1         2 LUT      0.094572
    204 H182       66.9869   65.0682   47.2627 R1         2 LUT      0.094572
    205 H181       66.0011   63.6195   46.8246 R1         2 LUT      0.094572
    206 H173       69.1898   60.7010   50.6839 T4         2 LUT      0.093752
    207 H172       69.7848   62.3605   50.6690 T4         2 LUT      0.093752
    208 H171       68.9478   61.8240   52.0095 T4         2 LUT      0.093752
    209 H163       66.6925   60.5101   50.8840 T4         2 LUT      0.093752
    210 H162       66.6846   61.4552   52.4527 T4         2 LUT      0.093752
    211 H161       65.3642   61.6760   51.1027 T4         2 LUT      0.093752
    212 HO3        65.8298   66.0858   52.4004 Q1         2 LUT      0.300121
    213 H8         68.7717   63.7745   47.0461 U7         2 LUT      0.080784
    214 H7         68.2929   61.0221   48.4081 U6         2 LUT      0.042190
    215 H42        64.7363   63.6183   50.0061 U5         2 LUT      0.145166
    216 H41        65.1001   65.3008   49.6470 U5         2 LUT      0.145166
    217 H35        76.9132   64.9003   42.5070 T3         2 LUT      0.077919
    218 H34        77.6503   63.9092   39.7997 T2         2 LUT      0.073626
    219 H32        79.5076   64.6505   38.8542 T1         2 LUT      0.092510
    220 H31        81.3116   66.7469   40.2007 U9         2 LUT      0.070048
    221 H30        81.4616   64.9500   37.6931 U8         2 LUT      0.085442
    222 H3         65.3432   63.9648   51.9558 U3         2 LUT     -0.031596
    223 H28        82.7327   65.1094   36.0256 U7         2 LUT      0.084728
    224 H27        85.0450   67.1421   36.3945 U6         2 LUT      0.087291
    225 H26        84.5153   64.4554   34.8642 Q6         2 LUT      0.075325
    226 H24        85.9737   65.9121   31.6677 Q5         2 LUT      0.094482
    227 H23        88.1362   65.5150   33.3313 U3         2 LUT     -0.024869
    228 H22        67.7009   63.5263   52.5534 U2         2 LUT      0.127376
    229 H21        68.1642   64.4137   51.0212 U2         2 LUT      0.127376
    230 H15        75.0848   63.5002   40.3897 T3         2 LUT      0.093200
    231 H14        74.6173   64.4724   43.3413 T2         2 LUT      0.068865
    232 H12        72.6516   64.0629   44.4710 T1         2 LUT      0.095507
    233 H11        71.1106   61.5501   43.4758 U9         2 LUT      0.068930
    234 H10        70.4974   63.7351   45.6236 U8         2 LUT      0.083911
    235 H1         87.4152   63.6503   31.3831 Q1         2 LUT      0.297311
@<TRIPOS>BOND
    1     6     1 1
    2     7     2 1
    3     8     3 1
    4     9     4 1
    5    11     4 1
    6    12     6 1
    7    13     9 1
    8    16     9 1
    9    25     5 1
   10    25    16 1
   11    26    10 1
   12    26    17 1
   13    27    18 1
   14    28    14 1
   15    28    19 1
   16    29    12 1
   17    30    13 1
   18    31    24 1
   19    32     1 1
   20    32    25 1
   21    33    21 1
   22    33    26 1
   23    34    22 1
   24    34    27 1
   25    35    23 1
   26    35    28 1
   27    36    12 1
   28    36    24 1
   29    37    13 1
   30    37    15 1
   31    38    31 1
   32    39    20 1
   33    39    32 1
   34    40     2 1
   35    40    33 1
   36    41     3 1
   37    41    34 1
   38    42     4 1
   39    42    35 1
   40    43    38 1
   41    44     5 1
   42    44    17 1
   43    44    39 1
   44    45    10 1
   45    45    18 1
   46    45    40 1
   47    46    19 1
   48    46    41 1
   49    47    14 1
   50    47    16 1
   51    47    42 1
   52    48    38 1
   53    49    48 1
   54    50    49 1
   55    51    50 1
   56    52    51 1
   57    53    51 1
   58    54    53 1
   59    55    54 1
   60    56    55 1
   61    57    56 1
   62    58    56 1
   63    59    58 1
   64    60    59 1
   65    61    60 1
   66    62    61 1
   67    63    61 1
   68    64    27 1
   69    64    46 1
   70    65     5 1
   71    65    10 1
   72    65    64 1
   73    65    14 1
   74    66    23 1
   75    67    23 1
   76    68    23 1
   77    69    22 1
   78    70    22 1
   79    71    22 1
   80    72    21 1
   81    73    21 1
   82    74    21 1
   83    75    20 1
   84    76    20 1
   85    77    20 1
   86    78    15 1
   87    79    15 1
   88    80    15 1
   89    81     8 1
   90    82     8 1
   91    83     8 1
   92    84     7 1
   93    85     7 1
   94    86     6 1
   95    87     6 1
   96    88     3 1
   97    89     3 1
   98    90     1 1
   99    91     1 1
  100    92    63 1
  101    93    63 1
  102    94    63 1
  103    95    62 1
  104    96    62 1
  105    97    62 1
  106    98    60 1
  107    99    60 1
  108   100    59 1
  109   101    59 1
  110   102    58 1
  111   103    58 1
  112   104    57 1
  113   105    57 1
  114   106    57 1
  115   107    55 1
  116   108    55 1
  117   109    54 1
  118   110    54 1
  119   111    53 1
  120   112    53 1
  121   113    19 1
  122   114    18 1
  123   115    17 1
  124   116     9 1
  125   117     2 1
  126   118    52 1
  127   119    52 1
  128   120    52 1
  129   121    51 1
  130   122    50 1
  131   123    50 1
  132   124    49 1
  133   125    49 1
  134   126    48 1
  135   127    48 1
  136   128    43 1
  137   129    43 1
  138   130    43 1
  139   131    39 1
  140   132    32 1
  141   133    31 1
  142   134    61 1
  143   135    56 1
  144   136    24 1
  145   137    24 1
  146   139   138 1
  147   140   139 1
  148   141   140 1
  149   142   140 1
  150   143   142 1
  151   144   138 1
  152   144   143 1
  153   145   144 1
  154   146   145 1
  155   147   146 1
  156   148   147 1
  157   149   148 1
  158   150   149 1
  159   151   150 1
  160   152   151 1
  161   153   152 1
  162   154   138 1
  163   155   138 1
  164   156   143 1
  165   157   147 1
  166   158   151 1
  167   160   159 1
  168   161   160 1
  169   162   161 1
  170   163   161 1
  171   164   163 1
  172   165   159 1
  173   165   164 1
  174   166   165 1
  175   167   166 1
  176   168   167 1
  177   169   168 1
  178   170   169 1
  179   171   170 1
  180   172   171 1
  181   173   172 1
  182   174   153 1
  183   174   173 1
  184   175   159 1
  185   176   159 1
  186   177   164 1
  187   178   168 1
  188   179   172 1
  189   180   179 1
  190   181   179 1
  191   182   179 1
  192   183   178 1
  193   184   178 1
  194   185   178 1
  195   186   177 1
  196   187   177 1
  197   188   177 1
  198   189   176 1
  199   190   176 1
  200   191   176 1
  201   192   175 1
  202   193   175 1
  203   194   175 1
  204   195   160 1
  205   196   160 1
  206   197   158 1
  207   198   158 1
  208   199   158 1
  209   200   157 1
  210   201   157 1
  211   202   157 1
  212   203   156 1
  213   204   156 1
  214   205   156 1
  215   206   155 1
  216   207   155 1
  217   208   155 1
  218   209   154 1
  219   210   154 1
  220   211   154 1
  221   212   141 1
  222   213   146 1
  223   214   145 1
  224   215   142 1
  225   216   142 1
  226   217   174 1
  227   218   173 1
  228   219   171 1
  229   220   170 1
  230   221   169 1
  231   222   140 1
  232   223   167 1
  233   224   166 1
  234   225   165 1
  235   226   163 1
  236   227   161 1
  237   228   139 1
  238   229   139 1
  239   230   153 1
  240   231   152 1
  241   232   150 1
  242   233   149 1
  243   234   148 1
  244   235   162 1
  245   65    153 1
  246   65    174 1
@<TRIPOS>SUBSTRUCTURE
      1 CLA               1 ****               0 ****  **** 
      2 LUT             138 ****               0 ****  **** 
