@<TRIPOS>MOLECULE
Cpptraj generated mol2 file.
  235   246     2     0     0
SMALL
USER_CHARGES


@<TRIPOS>ATOM
      1 CAA        79.2988   57.7023   35.5430 a2         1 CLA     -0.055900
      2 CAB        77.4424   61.9366   43.9290 c8         1 CLA     -0.148500
      3 CAC        71.6897   56.6411   43.3037 a2         1 CLA     -0.012600
      4 CAD        74.9348   55.0636   35.9951 ck         1 CLA      0.398800
      5 NA         77.7022   57.8978   38.7661 ns         1 CLA     -0.225500
      6 CBA        80.6504   57.4466   34.8839 a2         1 CLA     -0.135000
      7 CBB        78.3794   62.5801   44.6205 c0         1 CLA     -0.395200
      8 CBC        71.9468   55.1406   43.3553 a3         1 CLA     -0.037700
      9 CBD        76.3267   55.6850   35.9375 a1         1 CLA     -0.053900
     10 NB         77.1889   59.6453   41.0753 nm         1 CLA     -0.295700
     11 OBD        74.4564   54.3457   35.1042 o2         1 CLA     -0.494600
     12 CGA        81.1412   56.0649   34.6559 c4         1 CLA      0.827000
     13 CGD        77.3051   54.5617   35.6240 c4         1 CLA      0.655300
     14 ND         75.0044   56.8785   38.9961 nm         1 CLA     -0.291600
     15 CED        77.8757   52.2930   36.0186 a3         1 CLA      0.005400
     16 CHA        76.6372   56.4413   37.1643 cs         1 CLA     -0.123800
     17 CHB        79.2278   59.6044   39.8996 aa         1 CLA     -0.291900
     18 CHC        75.6456   59.7899   42.9997 aa         1 CLA     -0.090400
     19 CHD        73.0566   56.5242   40.4933 aa         1 CLA     -0.052000
     20 CMA        81.1254   57.4129   38.9156 a3         1 CLA     -0.230700
     21 CMB        80.1183   61.8131   41.8509 a3         1 CLA     -0.180800
     22 CMC        73.4798   58.7345   45.0314 a3         1 CLA     -0.134000
     23 CMD        72.0205   54.4865   38.1433 a3         1 CLA     -0.141100
     24 C1         82.2211   54.0771   35.7338 a2         1 CLA      0.023000
     25 C1A        77.7877   57.1744   37.5807 ac         1 CLA     -0.015100
     26 C1B        78.4605   60.1320   40.8381 cr         1 CLA      0.054700
     27 C1C        74.6691   58.7940   42.6940 cn         1 CLA     -0.005600
     28 C1D        73.7876   56.2095   39.3123 ap         1 CLA     -0.047300
     29 O1A        81.0437   55.3917   33.6476 o2         1 CLA     -0.610800
     30 O1D        78.1599   54.6566   34.7183 o2         1 CLA     -0.558200
     31 C2         81.6869   53.3380   36.8889 c8         1 CLA     -0.325100
     32 C2A        79.2105   57.1610   37.0015 a1         1 CLA      0.098600
     33 C2B        78.8215   61.0684   41.8432 cb         1 CLA      0.088500
     34 C2C        73.6564   58.3389   43.6645 cb         1 CLA      0.053700
     35 C2D        73.3868   55.2750   38.2403 cb         1 CLA      0.058900
     36 O2A        81.6899   55.4603   35.7726 o1         1 CLA     -0.437200
     37 O2D        77.1084   53.4805   36.4503 o1         1 CLA     -0.357600
     38 C3         82.3975   52.4554   37.6547 c5         1 CLA      0.031200
     39 C3A        79.9876   58.1049   38.0247 a1         1 CLA      0.166800
     40 C3B        77.7361   61.1444   42.7855 cb         1 CLA      0.035000
     41 C3C        72.9763   57.3622   42.9117 cb         1 CLA     -0.089900
     42 C3D        74.4358   55.4752   37.2818 cb         1 CLA     -0.035900
     43 C4         82.3959   50.9412   37.2001 a3         1 CLA     -0.053300
     44 C4A        78.8610   58.5956   38.9126 ac         1 CLA      0.001800
     45 C4B        76.7307   60.2340   42.2983 cn         1 CLA     -0.020900
     46 C4C        73.5361   57.3296   41.5882 cr         1 CLA     -0.044400
     47 C4D        75.3884   56.3576   37.8100 c6         1 CLA     -0.046000
     48 C5         83.3719   52.8585   38.7647 a2         1 CLA     -0.070400
     49 C6         83.9400   54.3256   38.7873 a2         1 CLA      0.043900
     50 C7         84.8432   54.4856   40.0528 a2         1 CLA     -0.150000
     51 C8         85.8102   55.8126   40.0299 a1         1 CLA      0.064200
     52 C9         86.8996   55.7907   38.8837 a3         1 CLA     -0.259300
     53 C10        86.3155   56.2033   41.4940 a2         1 CLA     -0.071900
     54 C11        85.2331   56.3130   42.6722 a2         1 CLA      0.014500
     55 C12        85.5014   57.3767   43.6788 a2         1 CLA     -0.112100
     56 C13        86.0100   57.0154   45.0985 a1         1 CLA      0.089200
     57 C14        84.9020   56.1326   45.9048 a3         1 CLA     -0.239100
     58 C15        86.3961   58.3688   45.8487 a2         1 CLA     -0.102200
     59 C16        85.3066   59.4988   45.8206 a2         1 CLA      0.023900
     60 C17        85.8681   60.6898   46.5741 a2         1 CLA     -0.105700
     61 C18        84.9132   61.8681   46.5959 a1         1 CLA      0.206800
     62 C19        83.6488   61.6532   47.5691 a3         1 CLA     -0.280100
     63 C20        85.7377   63.1081   46.9643 a3         1 CLA     -0.280100
     64 NC         74.5883   58.1470   41.5330 nx         1 CLA     -0.309200
     65 MG         76.0509   58.2456   39.9540 mg         1 CLA      0.895000
     66 HMD3       71.2296   54.9856   37.5920 dc         1 CLA      0.064300
     67 HMD2       72.1081   53.4629   37.7034 dc         1 CLA      0.064300
     68 HMD1       71.5431   54.3996   39.0871 dc         1 CLA      0.064300
     69 HMC3       74.3951   58.7390   45.6272 dc         1 CLA      0.052100
     70 HMC2       72.9456   59.7109   44.9160 dc         1 CLA      0.052100
     71 HMC1       72.7623   58.0071   45.5163 dc         1 CLA      0.052100
     72 HMB3       80.5833   62.1440   40.8849 dc         1 CLA      0.063600
     73 HMB2       79.9723   62.7782   42.4073 dc         1 CLA      0.063600
     74 HMB1       80.8254   61.0894   42.4139 dc         1 CLA      0.063600
     75 HMA3       81.6779   58.0537   39.5570 dc         1 CLA      0.058300
     76 HMA2       80.5415   56.6873   39.4873 dc         1 CLA      0.058300
     77 HMA1       81.8637   57.0419   38.1715 dc         1 CLA      0.058300
     78 HED3       77.7135   51.4377   36.7197 dc         1 CLA      0.079300
     79 HED2       77.4665   52.0246   35.0558 dc         1 CLA      0.079300
     80 HED1       78.9516   52.4166   35.8845 dc         1 CLA      0.079300
     81 HBC3       71.9731   54.7346   42.3384 dc         1 CLA      0.016300
     82 HBC2       72.8359   54.8808   43.9406 dc         1 CLA      0.016300
     83 HBC1       71.1735   54.5250   43.8467 dc         1 CLA      0.016300
     84 HBB2       78.1269   63.2017   45.5349 da         1 CLA      0.183000
     85 HBB1       79.4642   62.4756   44.3370 da         1 CLA      0.183000
     86 HBA2       80.7852   57.9661   33.8851 dc         1 CLA      0.029400
     87 HBA1       81.3859   57.8835   35.6198 dc         1 CLA      0.029400
     88 HAC2       71.3578   56.8888   44.2684 dc         1 CLA      0.029300
     89 HAC1       70.9411   56.8801   42.5303 dc         1 CLA      0.029300
     90 HAA2       78.4935   57.2305   34.9969 dc         1 CLA      0.028700
     91 HAA1       79.0870   58.7404   35.5263 dc         1 CLA      0.028700
     92 H203       85.0151   63.9634   46.9478 dc         1 CLA      0.065600
     93 H202       86.2254   62.8914   47.8873 dc         1 CLA      0.065600
     94 H201       86.5249   63.2020   46.2079 dc         1 CLA      0.065600
     95 H193       82.8968   60.8616   47.2319 dc         1 CLA      0.065600
     96 H192       83.8676   61.6588   48.6353 dc         1 CLA      0.065600
     97 H191       83.1171   62.5636   47.4547 dc         1 CLA      0.065600
     98 H172       86.1404   60.4558   47.5975 dc         1 CLA      0.027600
     99 H171       86.8041   61.0059   46.1151 dc         1 CLA      0.027600
    100 H162       85.2224   59.6938   44.7458 dc         1 CLA      0.002900
    101 H161       84.3804   59.1356   46.3246 dc         1 CLA      0.002900
    102 H152       86.5068   57.9821   46.9210 dc         1 CLA      0.029100
    103 H151       87.3318   58.6630   45.4333 dc         1 CLA      0.029100
    104 H143       85.4018   55.8196   46.8758 dc         1 CLA      0.063600
    105 H142       84.0914   56.7654   46.1700 dc         1 CLA      0.063600
    106 H141       84.6242   55.2014   45.4416 dc         1 CLA      0.063600
    107 H122       86.0822   58.0934   43.1285 dc         1 CLA      0.032500
    108 H121       84.5325   57.8655   43.7972 dc         1 CLA      0.032500
    109 H112       84.2580   56.6694   42.2682 dc         1 CLA      0.006600
    110 H111       85.0408   55.3195   43.0602 dc         1 CLA      0.006600
    111 H102       87.0878   55.5038   41.7160 dc         1 CLA      0.024100
    112 H101       86.6881   57.2427   41.2491 dc         1 CLA      0.024100
    113 HHD        72.1203   55.9831   40.6758 da         1 CLA      0.174300
    114 HHC        75.6265   60.1452   43.9850 da         1 CLA      0.136800
    115 HHB        80.2278   60.0472   39.8338 da         1 CLA      0.138300
    116 HBD        76.3705   56.3235   35.0516 dc         1 CLA      0.107700
    117 HAB        76.4320   62.0213   44.2803 da         1 CLA      0.155200
    118 H93        87.5492   54.8799   38.9119 dc         1 CLA      0.069500
    119 H92        86.3199   55.9856   37.9558 dc         1 CLA      0.069500
    120 H91        87.5146   56.6484   38.9364 dc         1 CLA      0.069500
    121 H8         85.1266   56.5451   39.8085 dc         1 CLA      0.029300
    122 H72        84.0638   54.5608   40.8512 dc         1 CLA      0.044400
    123 H71        85.3480   53.5646   40.2666 dc         1 CLA      0.044400
    124 H62        84.5708   54.6728   38.0198 dc         1 CLA      0.015600
    125 H61        83.1291   55.0431   38.9848 dc         1 CLA      0.015600
    126 H52        82.7751   52.6855   39.6932 dc         1 CLA      0.033200
    127 H51        84.2850   52.2892   38.7299 dc         1 CLA      0.033200
    128 H43        83.4097   50.6354   37.1115 dc         1 CLA      0.037000
    129 H42        82.0004   50.2572   37.9577 dc         1 CLA      0.037000
    130 H41        81.9941   50.8005   36.2583 dc         1 CLA      0.037000
    131 H3A        80.3602   59.0100   37.5980 dc         1 CLA      0.041100
    132 H2A        79.6287   56.1838   37.1206 dc         1 CLA      0.083100
    133 H2         80.7721   53.7252   37.3457 da         1 CLA      0.180900
    134 H18        84.4904   61.9657   45.5787 dc         1 CLA     -0.003900
    135 H13        86.8712   56.2974   45.0877 dc         1 CLA      0.019700
    136 H12        81.9450   53.5291   34.8535 dc         1 CLA      0.120400
    137 H11        83.3268   54.0494   35.7671 dc         1 CLA      0.120400
    138 C1         68.4325   60.5407   50.5564 Z1         2 LUT      0.509236
    139 C2         67.0567   60.4734   51.2626 Z2         2 LUT     -0.434695
    140 C3         66.2895   61.8022   51.5526 Z3         2 LUT      0.437453
    141 O3         66.1566   62.1650   52.9361 S1         2 LUT     -0.547129
    142 C4         66.8054   62.9803   50.6131 Z4         2 LUT     -0.468603
    143 C5         67.4779   62.5229   49.3834 Z5         2 LUT      0.279246
    144 C6         68.3058   61.4284   49.3438 Z6         2 LUT     -0.305473
    145 C7         68.7350   60.7989   48.0809 Z7         2 LUT      0.069402
    146 C8         69.4713   61.4681   47.1716 Z8         2 LUT     -0.191631
    147 C9         70.1904   61.0121   45.9537 Z9         2 LUT      0.196698
    148 C10        71.0611   61.8665   45.4173 Y1         2 LUT     -0.208611
    149 C11        71.8463   61.8801   44.2257 Y2         2 LUT      0.030784
    150 C12        72.8130   62.7834   43.8551 Y3         2 LUT     -0.220316
    151 C13        73.6892   62.8190   42.7314 Y4         2 LUT      0.215937
    152 C14        74.7500   63.6620   42.7394 Y5         2 LUT     -0.185793
    153 C15        75.7788   63.8364   41.6488 Y6         2 LUT     -0.057835
    154 C16        68.8269   59.0817   50.5049 Y7         2 LUT     -0.405615
    155 C17        69.3831   61.1812   51.6249 Y7         2 LUT     -0.405615
    156 C18        66.8977   63.3100   48.1916 Y9         2 LUT     -0.369639
    157 C19        69.9371   59.6262   45.3956 W1         2 LUT     -0.333362
    158 C20        73.4193   61.8799   41.5877 W2         2 LUT     -0.323439
    159 C21        87.0446   64.4947   35.7533 Z1         2 LUT      0.406104
    160 C22        87.9711   64.0063   34.6253 Z2         2 LUT     -0.404965
    161 C23        88.3022   65.0802   33.6992 Z3         2 LUT      0.391255
    162 O23        89.1392   64.5041   32.7112 S1         2 LUT     -0.528210
    163 C24        87.0850   65.8865   33.2465 W6         2 LUT     -0.258361
    164 C25        86.0049   65.9759   33.9415 Z5         2 LUT      0.133546
    165 C26        85.8044   65.1923   35.2072 W8         2 LUT     -0.147008
    166 C27        84.8945   65.7564   36.3298 Z7         2 LUT      0.023843
    167 C28        83.9418   65.0898   37.0911 Z8         2 LUT     -0.216987
    168 C29        83.4002   65.6219   38.4045 Z9         2 LUT      0.206524
    169 C30        82.1343   65.0924   38.6454 Y1         2 LUT     -0.215556
    170 C31        81.3763   65.4213   39.8030 Y2         2 LUT      0.025142
    171 C32        80.1093   64.9032   39.9554 Y3         2 LUT     -0.212209
    172 C33        79.2117   65.2042   41.0100 Y4         2 LUT      0.240937
    173 C34        78.0144   64.5364   40.9539 Y5         2 LUT     -0.218862
    174 C35        76.9029   64.5481   41.8621 Y6         2 LUT     -0.023547
    175 C36        87.7642   65.4826   36.7410 Y7         2 LUT     -0.393485
    176 C37        86.8152   63.2261   36.7125 Y7         2 LUT     -0.393485
    177 C38        84.9466   66.8591   33.3681 Y9         2 LUT     -0.387526
    178 C39        84.1531   66.7282   39.1635 W1         2 LUT     -0.322618
    179 C40        79.7356   65.7428   42.3220 W2         2 LUT     -0.358472
    180 H403       79.1317   66.6013   42.4679 R7         2 LUT      0.097720
    181 H402       79.6125   65.0812   43.1719 R7         2 LUT      0.097720
    182 H401       80.7429   66.2073   42.1669 R7         2 LUT      0.097720
    183 H393       83.8081   67.7123   39.0427 R4         2 LUT      0.082505
    184 H392       84.1063   66.6154   40.2474 R4         2 LUT      0.082505
    185 H391       85.2413   66.7967   38.9702 R4         2 LUT      0.082505
    186 H383       84.2659   66.2810   32.7324 R1         2 LUT      0.104030
    187 H382       84.3734   67.4248   34.1009 R1         2 LUT      0.104030
    188 H381       85.4258   67.7241   32.8184 R1         2 LUT      0.104030
    189 H373       86.0501   63.4395   37.3443 T4         2 LUT      0.089537
    190 H372       86.5545   62.4129   36.0802 T4         2 LUT      0.089537
    191 H371       87.7341   62.9851   37.2395 T4         2 LUT      0.089537
    192 H363       88.7795   64.9918   36.8782 T4         2 LUT      0.089537
    193 H362       87.9302   66.5313   36.4027 T4         2 LUT      0.089537
    194 H361       87.2897   65.5479   37.7038 T4         2 LUT      0.089537
    195 H222       88.8957   63.5191   34.9334 U2         2 LUT      0.127376
    196 H221       87.3529   63.2768   34.0463 U2         2 LUT      0.127376
    197 H203       74.3496   61.5063   41.2058 R7         2 LUT      0.087068
    198 H202       72.8292   61.0890   41.9529 R7         2 LUT      0.087068
    199 H201       72.8895   62.4227   40.7817 R7         2 LUT      0.087068
    200 H193       68.8518   59.3181   45.5159 R4         2 LUT      0.089716
    201 H192       70.0905   59.4056   44.3830 R4         2 LUT      0.089716
    202 H191       70.4889   58.9003   46.0825 R4         2 LUT      0.089716
    203 H183       65.7987   63.3728   48.3195 R1         2 LUT      0.094572
    204 H182       67.4468   64.2070   48.1855 R1         2 LUT      0.094572
    205 H181       67.0905   62.8568   47.1713 R1         2 LUT      0.094572
    206 H173       69.2708   62.2681   51.5853 T4         2 LUT      0.093752
    207 H172       69.1753   60.8577   52.6635 T4         2 LUT      0.093752
    208 H171       70.3900   60.8796   51.4448 T4         2 LUT      0.093752
    209 H163       68.1782   58.4980   49.8993 T4         2 LUT      0.093752
    210 H162       69.8268   59.0462   50.0765 T4         2 LUT      0.093752
    211 H161       68.9070   58.6096   51.5322 T4         2 LUT      0.093752
    212 HO3        66.9966   62.3788   53.3344 Q1         2 LUT      0.300121
    213 H8         69.7870   62.4154   47.4702 U7         2 LUT      0.080784
    214 H7         68.5729   59.7642   47.9025 U6         2 LUT      0.042190
    215 H42        65.9029   63.6004   50.4604 U5         2 LUT      0.145166
    216 H41        67.4670   63.7302   51.0378 U5         2 LUT      0.145166
    217 H35        77.0812   65.1312   42.7223 T3         2 LUT      0.077919
    218 H34        77.8852   63.9326   40.0594 T2         2 LUT      0.073626
    219 H32        79.6833   64.3503   39.1806 T1         2 LUT      0.092510
    220 H31        81.8255   66.1374   40.4760 U9         2 LUT      0.070048
    221 H30        81.7087   64.3938   37.9634 U8         2 LUT      0.085442
    222 H3         65.2423   61.5864   51.1399 U3         2 LUT     -0.031596
    223 H28        83.5916   64.1172   36.7124 U7         2 LUT      0.084728
    224 H27        85.1709   66.7631   36.6802 U6         2 LUT      0.087291
    225 H26        85.0681   64.4255   34.9153 Q6         2 LUT      0.075325
    226 H24        87.1513   66.3419   32.2589 Q5         2 LUT      0.094482
    227 H23        88.9576   65.8270   34.2204 U3         2 LUT     -0.024869
    228 H22        66.4051   59.9106   50.6558 U2         2 LUT      0.127376
    229 H21        67.1902   59.9686   52.2121 U2         2 LUT      0.127376
    230 H15        75.6694   63.3510   40.6367 T3         2 LUT      0.093200
    231 H14        74.8424   64.1363   43.6759 T2         2 LUT      0.068865
    232 H12        73.0353   63.5768   44.5684 T1         2 LUT      0.095507
    233 H11        71.6717   61.0648   43.5955 U9         2 LUT      0.068930
    234 H10        71.1028   62.8445   45.9176 U8         2 LUT      0.083911
    235 H1         88.6670   64.0811   31.9476 Q1         2 LUT      0.297311
@<TRIPOS>BOND
    1     6     1 1
    2     7     2 1
    3     8     3 1
    4     9     4 1
    5    11     4 1
    6    12     6 1
    7    13     9 1
    8    16     9 1
    9    25     5 1
   10    25    16 1
   11    26    10 1
   12    26    17 1
   13    27    18 1
   14    28    14 1
   15    28    19 1
   16    29    12 1
   17    30    13 1
   18    31    24 1
   19    32     1 1
   20    32    25 1
   21    33    21 1
   22    33    26 1
   23    34    22 1
   24    34    27 1
   25    35    23 1
   26    35    28 1
   27    36    12 1
   28    36    24 1
   29    37    13 1
   30    37    15 1
   31    38    31 1
   32    39    20 1
   33    39    32 1
   34    40     2 1
   35    40    33 1
   36    41     3 1
   37    41    34 1
   38    42     4 1
   39    42    35 1
   40    43    38 1
   41    44     5 1
   42    44    17 1
   43    44    39 1
   44    45    10 1
   45    45    18 1
   46    45    40 1
   47    46    19 1
   48    46    41 1
   49    47    14 1
   50    47    16 1
   51    47    42 1
   52    48    38 1
   53    49    48 1
   54    50    49 1
   55    51    50 1
   56    52    51 1
   57    53    51 1
   58    54    53 1
   59    55    54 1
   60    56    55 1
   61    57    56 1
   62    58    56 1
   63    59    58 1
   64    60    59 1
   65    61    60 1
   66    62    61 1
   67    63    61 1
   68    64    27 1
   69    64    46 1
   70    65     5 1
   71    65    10 1
   72    65    64 1
   73    65    14 1
   74    66    23 1
   75    67    23 1
   76    68    23 1
   77    69    22 1
   78    70    22 1
   79    71    22 1
   80    72    21 1
   81    73    21 1
   82    74    21 1
   83    75    20 1
   84    76    20 1
   85    77    20 1
   86    78    15 1
   87    79    15 1
   88    80    15 1
   89    81     8 1
   90    82     8 1
   91    83     8 1
   92    84     7 1
   93    85     7 1
   94    86     6 1
   95    87     6 1
   96    88     3 1
   97    89     3 1
   98    90     1 1
   99    91     1 1
  100    92    63 1
  101    93    63 1
  102    94    63 1
  103    95    62 1
  104    96    62 1
  105    97    62 1
  106    98    60 1
  107    99    60 1
  108   100    59 1
  109   101    59 1
  110   102    58 1
  111   103    58 1
  112   104    57 1
  113   105    57 1
  114   106    57 1
  115   107    55 1
  116   108    55 1
  117   109    54 1
  118   110    54 1
  119   111    53 1
  120   112    53 1
  121   113    19 1
  122   114    18 1
  123   115    17 1
  124   116     9 1
  125   117     2 1
  126   118    52 1
  127   119    52 1
  128   120    52 1
  129   121    51 1
  130   122    50 1
  131   123    50 1
  132   124    49 1
  133   125    49 1
  134   126    48 1
  135   127    48 1
  136   128    43 1
  137   129    43 1
  138   130    43 1
  139   131    39 1
  140   132    32 1
  141   133    31 1
  142   134    61 1
  143   135    56 1
  144   136    24 1
  145   137    24 1
  146   139   138 1
  147   140   139 1
  148   141   140 1
  149   142   140 1
  150   143   142 1
  151   144   138 1
  152   144   143 1
  153   145   144 1
  154   146   145 1
  155   147   146 1
  156   148   147 1
  157   149   148 1
  158   150   149 1
  159   151   150 1
  160   152   151 1
  161   153   152 1
  162   154   138 1
  163   155   138 1
  164   156   143 1
  165   157   147 1
  166   158   151 1
  167   160   159 1
  168   161   160 1
  169   162   161 1
  170   163   161 1
  171   164   163 1
  172   165   159 1
  173   165   164 1
  174   166   165 1
  175   167   166 1
  176   168   167 1
  177   169   168 1
  178   170   169 1
  179   171   170 1
  180   172   171 1
  181   173   172 1
  182   174   153 1
  183   174   173 1
  184   175   159 1
  185   176   159 1
  186   177   164 1
  187   178   168 1
  188   179   172 1
  189   180   179 1
  190   181   179 1
  191   182   179 1
  192   183   178 1
  193   184   178 1
  194   185   178 1
  195   186   177 1
  196   187   177 1
  197   188   177 1
  198   189   176 1
  199   190   176 1
  200   191   176 1
  201   192   175 1
  202   193   175 1
  203   194   175 1
  204   195   160 1
  205   196   160 1
  206   197   158 1
  207   198   158 1
  208   199   158 1
  209   200   157 1
  210   201   157 1
  211   202   157 1
  212   203   156 1
  213   204   156 1
  214   205   156 1
  215   206   155 1
  216   207   155 1
  217   208   155 1
  218   209   154 1
  219   210   154 1
  220   211   154 1
  221   212   141 1
  222   213   146 1
  223   214   145 1
  224   215   142 1
  225   216   142 1
  226   217   174 1
  227   218   173 1
  228   219   171 1
  229   220   170 1
  230   221   169 1
  231   222   140 1
  232   223   167 1
  233   224   166 1
  234   225   165 1
  235   226   163 1
  236   227   161 1
  237   228   139 1
  238   229   139 1
  239   230   153 1
  240   231   152 1
  241   232   150 1
  242   233   149 1
  243   234   148 1
  244   235   162 1
  245   65    153 1
  246   65    174 1
@<TRIPOS>SUBSTRUCTURE
      1 CLA               1 ****               0 ****  **** 
      2 LUT             138 ****               0 ****  **** 
