@<TRIPOS>MOLECULE
Cpptraj generated mol2 file.
  235   246     2     0     0
SMALL
USER_CHARGES


@<TRIPOS>ATOM
      1 CAA        79.0202   58.9814   33.4903 a2         1 CLA     -0.055900
      2 CAB        79.1919   62.5470   42.7417 c8         1 CLA     -0.148500
      3 CAC        72.1166   58.4986   41.9970 a2         1 CLA     -0.012600
      4 CAD        74.7483   56.6689   34.5928 ck         1 CLA      0.398800
      5 NA         78.1038   59.1963   37.0655 ns         1 CLA     -0.225500
      6 CBA        80.3502   59.0446   32.6244 a2         1 CLA     -0.135000
      7 CBB        79.9594   63.6356   43.0085 c0         1 CLA     -0.395200
      8 CBC        71.9132   56.9933   42.1560 a3         1 CLA     -0.037700
      9 CBD        76.1822   57.1847   34.3222 a1         1 CLA     -0.053900
     10 NB         77.9126   60.7098   39.7219 nm         1 CLA     -0.295700
     11 OBD        74.1275   56.1121   33.7012 o2         1 CLA     -0.494600
     12 CGA        80.8092   57.5625   32.4176 c4         1 CLA      0.827000
     13 CGD        76.9596   56.0321   33.7290 c4         1 CLA      0.655300
     14 ND         75.1490   58.4658   37.6171 nm         1 CLA     -0.291600
     15 CED        77.6427   53.7308   33.7874 a3         1 CLA      0.005400
     16 CHA        76.6524   57.8741   35.6323 cs         1 CLA     -0.123800
     17 CHB        79.7681   60.6755   38.0741 aa         1 CLA     -0.291900
     18 CHC        76.6570   60.8450   41.8451 aa         1 CLA     -0.090400
     19 CHD        73.3661   58.2122   39.2183 aa         1 CLA     -0.052000
     20 CMA        81.5884   59.3674   35.7900 a3         1 CLA     -0.230700
     21 CMB        81.2936   62.2188   40.2275 a3         1 CLA     -0.180800
     22 CMC        74.3891   59.9319   43.8159 a3         1 CLA     -0.134000
     23 CMD        72.0270   56.5815   36.7376 a3         1 CLA     -0.141100
     24 C1         81.8591   55.6703   33.5292 a2         1 CLA      0.023000
     25 C1A        77.8581   58.5652   35.8937 ac         1 CLA     -0.015100
     26 C1B        79.2234   60.9820   39.2957 cr         1 CLA      0.054700
     27 C1C        75.5056   60.0428   41.5374 cn         1 CLA     -0.005600
     28 C1D        73.8896   57.9619   37.9281 ap         1 CLA     -0.047300
     29 O1A        80.8719   56.9050   31.4168 o2         1 CLA     -0.610800
     30 O1D        77.4887   56.0723   32.6297 o2         1 CLA     -0.558200
     31 C2         82.6448   55.4542   34.8123 c8         1 CLA     -0.325100
     32 C2A        79.1502   58.6340   35.0354 a1         1 CLA      0.098600
     33 C2B        79.8860   61.7349   40.3553 cb         1 CLA      0.088500
     34 C2C        74.4117   59.6841   42.3816 cb         1 CLA      0.053700
     35 C2D        73.3580   57.2045   36.8111 cb         1 CLA      0.058900
     36 O2A        81.2900   57.0616   33.6371 o1         1 CLA     -0.437200
     37 O2D        76.9727   54.9002   34.4985 o1         1 CLA     -0.357600
     38 C3         83.7861   54.7659   34.9441 c5         1 CLA      0.031200
     39 C3A        80.0183   59.6731   35.7451 a1         1 CLA      0.166800
     40 C3B        78.9872   61.9042   41.4249 cb         1 CLA      0.035000
     41 C3C        73.4505   59.0326   41.6105 cb         1 CLA     -0.089900
     42 C3D        74.3783   57.1276   35.9139 cb         1 CLA     -0.035900
     43 C4         83.7990   53.2805   35.2397 a3         1 CLA     -0.053300
     44 C4A        79.2863   59.8394   37.0557 ac         1 CLA      0.001800
     45 C4B        77.8234   61.1343   41.0721 cn         1 CLA     -0.020900
     46 C4C        74.0381   58.8319   40.3103 cr         1 CLA     -0.044400
     47 C4D        75.4877   57.9082   36.4279 c6         1 CLA     -0.046000
     48 C5         85.0662   55.4153   34.4271 a2         1 CLA     -0.070400
     49 C6         85.5941   56.4710   35.3616 a2         1 CLA      0.043900
     50 C7         85.7287   55.8454   36.8071 a2         1 CLA     -0.150000
     51 C8         86.1313   56.9394   37.8617 a1         1 CLA      0.064200
     52 C9         87.6156   57.3999   37.8332 a3         1 CLA     -0.259300
     53 C10        85.7605   56.3629   39.3055 a2         1 CLA     -0.071900
     54 C11        86.2598   57.1269   40.5199 a2         1 CLA      0.014500
     55 C12        85.3042   56.8836   41.7295 a2         1 CLA     -0.112100
     56 C13        85.5142   57.8693   42.8764 a1         1 CLA      0.089200
     57 C14        86.7980   57.4143   43.7603 a3         1 CLA     -0.239100
     58 C15        84.3461   58.0389   43.8548 a2         1 CLA     -0.102200
     59 C16        83.0627   58.6999   43.3354 a2         1 CLA      0.023900
     60 C17        81.9097   58.8449   44.4027 a2         1 CLA     -0.105700
     61 C18        80.4804   59.1846   43.8939 a1         1 CLA      0.206800
     62 C19        79.7382   58.0393   43.1507 a3         1 CLA     -0.280100
     63 C20        79.6680   59.8774   45.1103 a3         1 CLA     -0.280100
     64 NC         75.2825   59.4766   40.2831 nx         1 CLA     -0.309200
     65 MG         76.5636   59.6563   38.6700 mg         1 CLA      0.895000
     66 HMD3       71.9763   55.6941   36.1586 dc         1 CLA      0.064300
     67 HMD2       71.7875   56.3101   37.7571 dc         1 CLA      0.064300
     68 HMD1       71.3514   57.2312   36.2846 dc         1 CLA      0.064300
     69 HMC3       74.2233   58.9656   44.2684 dc         1 CLA      0.052100
     70 HMC2       75.3789   60.2163   44.1124 dc         1 CLA      0.052100
     71 HMC1       73.6560   60.6496   44.0212 dc         1 CLA      0.052100
     72 HMB3       81.9496   61.4916   39.8060 dc         1 CLA      0.063600
     73 HMB2       81.3123   63.0370   39.5421 dc         1 CLA      0.063600
     74 HMB1       81.6168   62.4049   41.2306 dc         1 CLA      0.063600
     75 HMA3       81.7142   58.2908   35.9044 dc         1 CLA      0.058300
     76 HMA2       82.0551   59.8261   34.8960 dc         1 CLA      0.058300
     77 HMA1       82.1235   60.0708   36.4497 dc         1 CLA      0.058300
     78 HED3       77.7033   52.8665   34.4118 dc         1 CLA      0.079300
     79 HED2       77.1638   53.5474   32.8420 dc         1 CLA      0.079300
     80 HED1       78.7608   53.9795   33.5806 dc         1 CLA      0.079300
     81 HBC3       70.8389   56.7822   42.0596 dc         1 CLA      0.016300
     82 HBC2       72.4193   56.4813   41.3347 dc         1 CLA      0.016300
     83 HBC1       72.2582   56.6261   43.1067 dc         1 CLA      0.016300
     84 HBB2       79.9148   64.1329   43.9574 da         1 CLA      0.183000
     85 HBB1       80.5014   64.1669   42.2181 da         1 CLA      0.183000
     86 HBA2       80.2456   59.5528   31.6360 dc         1 CLA      0.029400
     87 HBA1       81.1274   59.6014   33.0650 dc         1 CLA      0.029400
     88 HAC2       71.7427   58.8307   42.9405 dc         1 CLA      0.029300
     89 HAC1       71.4232   58.7749   41.1839 dc         1 CLA      0.029300
     90 HAA2       78.4272   58.3497   32.9304 dc         1 CLA      0.028700
     91 HAA1       78.6553   60.0213   33.4284 dc         1 CLA      0.028700
     92 H203       80.2465   60.7152   45.5303 dc         1 CLA      0.065600
     93 H202       78.7213   60.2185   44.7212 dc         1 CLA      0.065600
     94 H201       79.4734   59.1018   45.8109 dc         1 CLA      0.065600
     95 H193       78.6930   58.4213   42.9910 dc         1 CLA      0.065600
     96 H192       80.3138   57.8724   42.2003 dc         1 CLA      0.065600
     97 H191       79.6169   57.1141   43.8286 dc         1 CLA      0.065600
     98 H172       81.9009   57.8867   44.9284 dc         1 CLA      0.027600
     99 H171       82.2419   59.6922   45.0126 dc         1 CLA      0.027600
    100 H162       83.2513   59.7239   42.9490 dc         1 CLA      0.002900
    101 H161       82.6213   58.2217   42.4297 dc         1 CLA      0.002900
    102 H152       84.2515   57.0505   44.2554 dc         1 CLA      0.029100
    103 H151       84.6802   58.7617   44.6149 dc         1 CLA      0.029100
    104 H143       86.6540   56.5245   44.4000 dc         1 CLA      0.063600
    105 H142       87.5825   57.0574   43.0493 dc         1 CLA      0.063600
    106 H141       87.1273   58.2720   44.3905 dc         1 CLA      0.063600
    107 H122       84.2283   56.9776   41.4709 dc         1 CLA      0.032500
    108 H121       85.3964   55.8893   42.0155 dc         1 CLA      0.032500
    109 H112       87.3614   56.8891   40.7400 dc         1 CLA      0.006600
    110 H111       86.1909   58.1686   40.1159 dc         1 CLA      0.006600
    111 H102       84.6429   56.4171   39.3846 dc         1 CLA      0.024100
    112 H101       86.1634   55.3317   39.3040 dc         1 CLA      0.024100
    113 HHD        72.3928   57.7967   39.4958 da         1 CLA      0.174300
    114 HHC        76.7599   61.2379   42.8723 da         1 CLA      0.136800
    115 HHB        80.7238   61.1400   37.7753 da         1 CLA      0.138300
    116 HBD        76.1415   57.9853   33.5423 dc         1 CLA      0.107700
    117 HAB        78.5964   62.1437   43.5555 da         1 CLA      0.155200
    118 H93        87.6907   58.4185   38.1360 dc         1 CLA      0.069500
    119 H92        88.1474   56.8257   38.5536 dc         1 CLA      0.069500
    120 H91        88.0709   57.2881   36.8896 dc         1 CLA      0.069500
    121 H8         85.4847   57.8069   37.7678 dc         1 CLA      0.029300
    122 H72        84.8602   55.2706   37.1080 dc         1 CLA      0.044400
    123 H71        86.4932   55.1173   36.7912 dc         1 CLA      0.044400
    124 H62        86.5707   56.8881   35.0260 dc         1 CLA      0.015600
    125 H61        84.8372   57.2461   35.2595 dc         1 CLA      0.015600
    126 H52        85.8346   54.6750   34.1530 dc         1 CLA      0.033200
    127 H51        84.8917   56.0311   33.5543 dc         1 CLA      0.033200
    128 H43        84.5674   52.6872   34.6788 dc         1 CLA      0.037000
    129 H42        83.8948   53.1562   36.3418 dc         1 CLA      0.037000
    130 H41        82.7909   52.8847   34.8862 dc         1 CLA      0.037000
    131 H3A        79.9709   60.6632   35.2870 dc         1 CLA      0.041100
    132 H2A        79.5568   57.6336   35.0475 dc         1 CLA      0.083100
    133 H2         82.3272   55.9945   35.6927 da         1 CLA      0.180900
    134 H18        80.5561   60.0878   43.2696 dc         1 CLA     -0.003900
    135 H13        85.6877   58.8862   42.4359 dc         1 CLA      0.019700
    136 H12        81.0296   54.9987   33.3296 dc         1 CLA      0.120400
    137 H11        82.6087   55.5531   32.6699 dc         1 CLA      0.120400
    138 C1         68.8201   61.9809   49.4149 Z1         2 LUT      0.509236
    139 C2         67.4851   61.7016   50.0608 Z2         2 LUT     -0.434695
    140 C3         66.6726   63.0145   50.4733 Z3         2 LUT      0.437453
    141 O3         66.3844   63.0363   51.8931 S1         2 LUT     -0.547129
    142 C4         67.1620   64.3251   49.7353 Z4         2 LUT     -0.468603
    143 C5         67.8772   64.0495   48.4177 Z5         2 LUT      0.279246
    144 C6         68.6899   63.0197   48.2921 Z6         2 LUT     -0.305473
    145 C7         69.0089   62.5813   46.8517 Z7         2 LUT      0.069402
    146 C8         70.1584   62.8073   46.1610 Z8         2 LUT     -0.191631
    147 C9         70.6621   62.4130   44.8414 Z9         2 LUT      0.196698
    148 C10        71.7746   63.0687   44.3598 Y1         2 LUT     -0.208611
    149 C11        72.5161   62.9039   43.1846 Y2         2 LUT      0.030784
    150 C12        73.6811   63.7024   42.9248 Y3         2 LUT     -0.220316
    151 C13        74.5210   63.6731   41.7052 Y4         2 LUT      0.215937
    152 C14        75.6683   64.3778   41.7076 Y5         2 LUT     -0.185793
    153 C15        76.7081   64.5209   40.7737 Y6         2 LUT     -0.057835
    154 C16        69.2970   60.5790   48.9512 Y7         2 LUT     -0.405615
    155 C17        69.6572   62.5859   50.5743 Y7         2 LUT     -0.405615
    156 C18        67.3270   64.9497   47.2883 Y9         2 LUT     -0.369639
    157 C19        69.8917   61.4417   44.0759 W1         2 LUT     -0.333362
    158 C20        74.1019   62.8888   40.4626 W2         2 LUT     -0.323439
    159 C21        88.0708   66.1706   34.5678 Z1         2 LUT      0.406104
    160 C22        88.8328   65.7536   33.2972 Z2         2 LUT     -0.404965
    161 C23        88.9232   66.8261   32.2243 Z3         2 LUT      0.391255
    162 O23        89.5201   66.2632   31.0404 S1         2 LUT     -0.528210
    163 C24        87.7244   67.7321   31.9784 W6         2 LUT     -0.258361
    164 C25        86.6454   67.6685   32.7770 Z5         2 LUT      0.133546
    165 C26        86.6505   66.7900   34.0840 W8         2 LUT     -0.147008
    166 C27        85.8319   67.2950   35.2984 Z7         2 LUT      0.023843
    167 C28        84.7184   66.7989   35.8409 Z8         2 LUT     -0.216987
    168 C29        84.0611   66.9856   37.1533 Z9         2 LUT      0.206524
    169 C30        82.9676   66.1584   37.4266 Y1         2 LUT     -0.215556
    170 C31        82.1805   66.1802   38.5493 Y2         2 LUT      0.025142
    171 C32        80.9752   65.5636   38.8353 Y3         2 LUT     -0.212209
    172 C33        80.2258   65.7990   40.1296 Y4         2 LUT      0.240937
    173 C34        79.0374   65.1223   40.1832 Y5         2 LUT     -0.218862
    174 C35        77.8703   65.1555   41.0428 Y6         2 LUT     -0.023547
    175 C36        88.9490   67.1705   35.3141 Y7         2 LUT     -0.393485
    176 C37        87.8214   65.0278   35.4968 Y7         2 LUT     -0.393485
    177 C38        85.4214   68.4895   32.4448 Y9         2 LUT     -0.387526
    178 C39        84.5284   67.9899   38.1017 W1         2 LUT     -0.322618
    179 C40        80.5451   66.9151   41.1194 W2         2 LUT     -0.358472
    180 H403       80.7841   67.7831   40.5691 R7         2 LUT      0.097720
    181 H402       79.7307   67.0673   41.8562 R7         2 LUT      0.097720
    182 H401       81.4054   66.6175   41.6877 R7         2 LUT      0.097720
    183 H393       84.3339   69.0081   37.6462 R4         2 LUT      0.082505
    184 H392       84.0339   68.1016   39.1115 R4         2 LUT      0.082505
    185 H391       85.5356   67.8801   38.3463 R4         2 LUT      0.082505
    186 H383       84.6283   67.8678   31.9937 R1         2 LUT      0.104030
    187 H382       85.0623   69.1078   33.2618 R1         2 LUT      0.104030
    188 H381       85.6707   69.1928   31.5815 R1         2 LUT      0.104030
    189 H373       88.6756   64.3147   35.6431 T4         2 LUT      0.089537
    190 H372       87.4649   65.2949   36.5193 T4         2 LUT      0.089537
    191 H371       87.0726   64.3938   35.1528 T4         2 LUT      0.089537
    192 H363       89.1630   68.0046   34.7067 T4         2 LUT      0.089537
    193 H362       88.5195   67.4541   36.2786 T4         2 LUT      0.089537
    194 H361       89.9413   66.6588   35.5491 T4         2 LUT      0.089537
    195 H222       89.8986   65.6188   33.5986 U2         2 LUT      0.127376
    196 H221       88.3300   64.8654   32.8840 U2         2 LUT      0.127376
    197 H203       75.0042   62.5211   39.9507 R7         2 LUT      0.087068
    198 H202       73.5538   61.9742   40.6652 R7         2 LUT      0.087068
    199 H201       73.6162   63.4606   39.6839 R7         2 LUT      0.087068
    200 H193       70.4053   61.0741   43.2320 R4         2 LUT      0.089716
    201 H192       69.5812   60.5429   44.6451 R4         2 LUT      0.089716
    202 H191       68.9291   61.7937   43.7645 R4         2 LUT      0.089716
    203 H183       66.7762   65.7724   47.6684 R1         2 LUT      0.094572
    204 H182       68.1221   65.3586   46.6974 R1         2 LUT      0.094572
    205 H181       66.6375   64.3897   46.6506 R1         2 LUT      0.094572
    206 H173       69.6672   63.6939   50.6962 T4         2 LUT      0.093752
    207 H172       69.4192   62.1504   51.5212 T4         2 LUT      0.093752
    208 H171       70.7199   62.3879   50.3152 T4         2 LUT      0.093752
    209 H163       68.6961   60.1985   48.0710 T4         2 LUT      0.093752
    210 H162       70.3129   60.6100   48.6875 T4         2 LUT      0.093752
    211 H161       69.1473   59.8156   49.6979 T4         2 LUT      0.093752
    212 HO3        67.2012   63.1144   52.3515 Q1         2 LUT      0.300121
    213 H8         70.8651   63.4581   46.7186 U7         2 LUT      0.080784
    214 H7         68.2656   62.0296   46.3070 U6         2 LUT      0.042190
    215 H42        66.3882   65.0630   49.6361 U5         2 LUT      0.145166
    216 H41        67.7465   64.9417   50.3830 U5         2 LUT      0.145166
    217 H35        77.9352   65.5547   42.0474 T3         2 LUT      0.077919
    218 H34        78.9108   64.4866   39.2844 T2         2 LUT      0.073626
    219 H32        80.5183   64.9674   38.0805 T1         2 LUT      0.092510
    220 H31        82.5305   66.7684   39.4069 U9         2 LUT      0.070048
    221 H30        82.6725   65.3385   36.6955 U8         2 LUT      0.085442
    222 H3         65.6585   62.8396   50.0002 U3         2 LUT     -0.031596
    223 H28        84.2575   65.9618   35.2943 U7         2 LUT      0.084728
    224 H27        86.2517   68.0681   35.8522 U6         2 LUT      0.087291
    225 H26        86.2100   65.9913   33.6525 Q6         2 LUT      0.075325
    226 H24        87.7481   68.3274   31.0529 Q5         2 LUT      0.094482
    227 H23        89.6666   67.5322   32.6550 U3         2 LUT     -0.024869
    228 H22        66.7697   61.1836   49.4033 U2         2 LUT      0.127376
    229 H21        67.7374   61.0515   50.9156 U2         2 LUT      0.127376
    230 H15        76.6031   63.9791   39.7934 T3         2 LUT      0.093200
    231 H14        75.8614   64.8349   42.6666 T2         2 LUT      0.068865
    232 H12        73.8961   64.3096   43.7240 T1         2 LUT      0.095507
    233 H11        72.1045   62.3525   42.3689 U9         2 LUT      0.068930
    234 H10        72.2542   63.7321   45.0851 U8         2 LUT      0.083911
    235 H1         88.8920   65.6695   30.5897 Q1         2 LUT      0.297311
@<TRIPOS>BOND
    1     6     1 1
    2     7     2 1
    3     8     3 1
    4     9     4 1
    5    11     4 1
    6    12     6 1
    7    13     9 1
    8    16     9 1
    9    25     5 1
   10    25    16 1
   11    26    10 1
   12    26    17 1
   13    27    18 1
   14    28    14 1
   15    28    19 1
   16    29    12 1
   17    30    13 1
   18    31    24 1
   19    32     1 1
   20    32    25 1
   21    33    21 1
   22    33    26 1
   23    34    22 1
   24    34    27 1
   25    35    23 1
   26    35    28 1
   27    36    12 1
   28    36    24 1
   29    37    13 1
   30    37    15 1
   31    38    31 1
   32    39    20 1
   33    39    32 1
   34    40     2 1
   35    40    33 1
   36    41     3 1
   37    41    34 1
   38    42     4 1
   39    42    35 1
   40    43    38 1
   41    44     5 1
   42    44    17 1
   43    44    39 1
   44    45    10 1
   45    45    18 1
   46    45    40 1
   47    46    19 1
   48    46    41 1
   49    47    14 1
   50    47    16 1
   51    47    42 1
   52    48    38 1
   53    49    48 1
   54    50    49 1
   55    51    50 1
   56    52    51 1
   57    53    51 1
   58    54    53 1
   59    55    54 1
   60    56    55 1
   61    57    56 1
   62    58    56 1
   63    59    58 1
   64    60    59 1
   65    61    60 1
   66    62    61 1
   67    63    61 1
   68    64    27 1
   69    64    46 1
   70    65     5 1
   71    65    10 1
   72    65    64 1
   73    65    14 1
   74    66    23 1
   75    67    23 1
   76    68    23 1
   77    69    22 1
   78    70    22 1
   79    71    22 1
   80    72    21 1
   81    73    21 1
   82    74    21 1
   83    75    20 1
   84    76    20 1
   85    77    20 1
   86    78    15 1
   87    79    15 1
   88    80    15 1
   89    81     8 1
   90    82     8 1
   91    83     8 1
   92    84     7 1
   93    85     7 1
   94    86     6 1
   95    87     6 1
   96    88     3 1
   97    89     3 1
   98    90     1 1
   99    91     1 1
  100    92    63 1
  101    93    63 1
  102    94    63 1
  103    95    62 1
  104    96    62 1
  105    97    62 1
  106    98    60 1
  107    99    60 1
  108   100    59 1
  109   101    59 1
  110   102    58 1
  111   103    58 1
  112   104    57 1
  113   105    57 1
  114   106    57 1
  115   107    55 1
  116   108    55 1
  117   109    54 1
  118   110    54 1
  119   111    53 1
  120   112    53 1
  121   113    19 1
  122   114    18 1
  123   115    17 1
  124   116     9 1
  125   117     2 1
  126   118    52 1
  127   119    52 1
  128   120    52 1
  129   121    51 1
  130   122    50 1
  131   123    50 1
  132   124    49 1
  133   125    49 1
  134   126    48 1
  135   127    48 1
  136   128    43 1
  137   129    43 1
  138   130    43 1
  139   131    39 1
  140   132    32 1
  141   133    31 1
  142   134    61 1
  143   135    56 1
  144   136    24 1
  145   137    24 1
  146   139   138 1
  147   140   139 1
  148   141   140 1
  149   142   140 1
  150   143   142 1
  151   144   138 1
  152   144   143 1
  153   145   144 1
  154   146   145 1
  155   147   146 1
  156   148   147 1
  157   149   148 1
  158   150   149 1
  159   151   150 1
  160   152   151 1
  161   153   152 1
  162   154   138 1
  163   155   138 1
  164   156   143 1
  165   157   147 1
  166   158   151 1
  167   160   159 1
  168   161   160 1
  169   162   161 1
  170   163   161 1
  171   164   163 1
  172   165   159 1
  173   165   164 1
  174   166   165 1
  175   167   166 1
  176   168   167 1
  177   169   168 1
  178   170   169 1
  179   171   170 1
  180   172   171 1
  181   173   172 1
  182   174   153 1
  183   174   173 1
  184   175   159 1
  185   176   159 1
  186   177   164 1
  187   178   168 1
  188   179   172 1
  189   180   179 1
  190   181   179 1
  191   182   179 1
  192   183   178 1
  193   184   178 1
  194   185   178 1
  195   186   177 1
  196   187   177 1
  197   188   177 1
  198   189   176 1
  199   190   176 1
  200   191   176 1
  201   192   175 1
  202   193   175 1
  203   194   175 1
  204   195   160 1
  205   196   160 1
  206   197   158 1
  207   198   158 1
  208   199   158 1
  209   200   157 1
  210   201   157 1
  211   202   157 1
  212   203   156 1
  213   204   156 1
  214   205   156 1
  215   206   155 1
  216   207   155 1
  217   208   155 1
  218   209   154 1
  219   210   154 1
  220   211   154 1
  221   212   141 1
  222   213   146 1
  223   214   145 1
  224   215   142 1
  225   216   142 1
  226   217   174 1
  227   218   173 1
  228   219   171 1
  229   220   170 1
  230   221   169 1
  231   222   140 1
  232   223   167 1
  233   224   166 1
  234   225   165 1
  235   226   163 1
  236   227   161 1
  237   228   139 1
  238   229   139 1
  239   230   153 1
  240   231   152 1
  241   232   150 1
  242   233   149 1
  243   234   148 1
  244   235   162 1
  245   65    153 1
  246   65    174 1
@<TRIPOS>SUBSTRUCTURE
      1 CLA               1 ****               0 ****  **** 
      2 LUT             138 ****               0 ****  **** 
