@<TRIPOS>MOLECULE
Cpptraj generated mol2 file.
  235   246     2     0     0
SMALL
USER_CHARGES


@<TRIPOS>ATOM
      1 CAA        76.4879   57.9011   33.0492 a2         1 CLA     -0.055900
      2 CAB        77.3569   61.5004   42.1530 c8         1 CLA     -0.148500
      3 CAC        70.3206   57.6075   41.8389 a2         1 CLA     -0.012600
      4 CAD        72.5898   55.2760   34.5334 ck         1 CLA      0.398800
      5 NA         75.8010   58.3590   36.6231 ns         1 CLA     -0.225500
      6 CBA        77.7088   57.6775   32.1402 a2         1 CLA     -0.135000
      7 CBB        78.5480   61.2290   42.7148 c0         1 CLA     -0.395200
      8 CBC        70.5975   56.0818   41.9167 a3         1 CLA     -0.037700
      9 CBD        74.0320   55.7902   34.2350 a1         1 CLA     -0.053900
     10 NB         75.9119   59.8904   39.1473 nm         1 CLA     -0.295700
     11 OBD        71.9610   54.4648   33.8104 o2         1 CLA     -0.494600
     12 CGA        78.1613   56.2367   31.8569 c4         1 CLA      0.827000
     13 CGD        75.0036   54.6717   34.0437 c4         1 CLA      0.655300
     14 ND         73.0777   57.4201   37.2648 nm         1 CLA     -0.291600
     15 CED        76.1157   52.9254   35.3474 a3         1 CLA      0.005400
     16 CHA        74.4274   56.7329   35.2934 cs         1 CLA     -0.123800
     17 CHB        77.7049   59.6957   37.4493 aa         1 CLA     -0.291900
     18 CHC        74.6024   60.3483   41.1747 aa         1 CLA     -0.090400
     19 CHD        71.1868   57.5769   38.9070 aa         1 CLA     -0.052000
     20 CMA        79.1696   57.6433   35.6419 a3         1 CLA     -0.230700
     21 CMB        79.3873   61.3596   39.4253 a3         1 CLA     -0.180800
     22 CMC        72.3611   59.7139   43.3069 a3         1 CLA     -0.134000
     23 CMD        69.7749   55.4584   36.8439 a3         1 CLA     -0.141100
     24 C1         79.2588   54.3410   32.7878 a2         1 CLA      0.023000
     25 C1A        75.5454   57.5563   35.5073 ac         1 CLA     -0.015100
     26 C1B        77.1860   60.2012   38.6694 cr         1 CLA      0.054700
     27 C1C        73.3865   59.6653   40.8727 cn         1 CLA     -0.005600
     28 C1D        71.7610   57.0850   37.6639 ap         1 CLA     -0.047300
     29 O1A        77.9341   55.5792   30.8582 o2         1 CLA     -0.610800
     30 O1D        75.7588   54.5800   33.0865 o2         1 CLA     -0.558200
     31 C2         79.9230   53.8900   34.0734 c8         1 CLA     -0.325100
     32 C2A        76.7655   57.4900   34.5537 a1         1 CLA      0.098600
     33 C2B        77.9389   60.9118   39.6499 cb         1 CLA      0.088500
     34 C2C        72.2692   59.3217   41.8769 cb         1 CLA      0.053700
     35 C2D        71.1716   56.0437   36.7178 cb         1 CLA      0.058900
     36 O2A        78.8765   55.7537   32.8959 o1         1 CLA     -0.437200
     37 O2D        75.0975   53.9820   35.2440 o1         1 CLA     -0.357600
     38 C3         80.8439   52.9371   34.2665 c5         1 CLA      0.031200
     39 C3A        77.8082   58.3148   35.3364 a1         1 CLA      0.166800
     40 C3B        77.0722   60.9547   40.7996 cb         1 CLA      0.035000
     41 C3C        71.4270   58.4363   41.2326 cb         1 CLA     -0.089900
     42 C3D        72.2107   55.9151   35.7965 cb         1 CLA     -0.035900
     43 C4         80.5296   51.5210   34.6279 a3         1 CLA     -0.053300
     44 C4A        77.0814   58.8778   36.5686 ac         1 CLA      0.001800
     45 C4B        75.7925   60.4939   40.3847 cn         1 CLA     -0.020900
     46 C4C        71.8100   58.4532   39.8191 cr         1 CLA     -0.044400
     47 C4D        73.3388   56.7213   36.1378 c6         1 CLA     -0.046000
     48 C5         82.3324   53.2441   34.0677 a2         1 CLA     -0.070400
     49 C6         82.8910   54.6726   34.1928 a2         1 CLA      0.043900
     50 C7         83.2368   54.9081   35.6263 a2         1 CLA     -0.150000
     51 C8         83.3654   56.4357   35.8610 a1         1 CLA      0.064200
     52 C9         84.5218   57.0184   35.0867 a3         1 CLA     -0.259300
     53 C10        83.2655   56.9890   37.3459 a2         1 CLA     -0.071900
     54 C11        81.9706   56.6309   38.0295 a2         1 CLA      0.014500
     55 C12        81.9297   56.7671   39.5551 a2         1 CLA     -0.112100
     56 C13        80.6146   56.5062   40.3741 a1         1 CLA      0.089200
     57 C14        79.3776   57.4373   40.0611 a3         1 CLA     -0.239100
     58 C15        80.9113   56.6038   41.8890 a2         1 CLA     -0.102200
     59 C16        81.3796   57.9762   42.4650 a2         1 CLA      0.023900
     60 C17        81.5524   58.0208   43.9729 a2         1 CLA     -0.105700
     61 C18        82.1188   59.2344   44.6281 a1         1 CLA      0.206800
     62 C19        83.4681   59.5352   43.8989 a3         1 CLA     -0.280100
     63 C20        81.1884   60.4630   44.7518 a3         1 CLA     -0.280100
     64 NC         73.0626   59.0661   39.6992 nx         1 CLA     -0.309200
     65 MG         74.4128   58.7886   38.1303 mg         1 CLA      0.895000
     66 HMD3       69.3413   55.6393   37.8166 dc         1 CLA      0.064300
     67 HMD2       69.0095   55.8267   36.1843 dc         1 CLA      0.064300
     68 HMD1       69.8919   54.3887   36.6409 dc         1 CLA      0.064300
     69 HMC3       73.3751   59.5775   43.6180 dc         1 CLA      0.052100
     70 HMC2       72.0771   60.7050   43.5250 dc         1 CLA      0.052100
     71 HMC1       71.8187   59.0581   43.9747 dc         1 CLA      0.052100
     72 HMB3       80.0879   60.5539   39.6205 dc         1 CLA      0.063600
     73 HMB2       79.4908   61.6301   38.3849 dc         1 CLA      0.063600
     74 HMB1       79.4528   62.1887   40.2048 dc         1 CLA      0.063600
     75 HMA3       79.8885   58.3299   36.0115 dc         1 CLA      0.058300
     76 HMA2       78.8575   56.9717   36.4526 dc         1 CLA      0.058300
     77 HMA1       79.4906   57.1168   34.7736 dc         1 CLA      0.058300
     78 HED3       77.0881   53.3365   35.1284 dc         1 CLA      0.079300
     79 HED2       76.1077   52.5234   36.4106 dc         1 CLA      0.079300
     80 HED1       75.9304   52.1394   34.6939 dc         1 CLA      0.079300
     81 HBC3       71.4657   55.8327   42.5357 dc         1 CLA      0.016300
     82 HBC2       69.7495   55.4182   42.1432 dc         1 CLA      0.016300
     83 HBC1       70.8864   55.7464   40.9540 dc         1 CLA      0.016300
     84 HBB2       78.6821   61.6753   43.7563 da         1 CLA      0.183000
     85 HBB1       79.3786   60.7196   42.1791 da         1 CLA      0.183000
     86 HBA2       77.4528   58.0751   31.1654 dc         1 CLA      0.029400
     87 HBA1       78.5400   58.2105   32.5359 dc         1 CLA      0.029400
     88 HAC2       70.2562   57.9312   42.9276 dc         1 CLA      0.029300
     89 HAC1       69.3171   57.7882   41.4353 dc         1 CLA      0.029300
     90 HAA2       75.8068   57.2285   32.6174 dc         1 CLA      0.028700
     91 HAA1       75.9914   58.8905   33.0206 dc         1 CLA      0.028700
     92 H203       81.0392   61.0338   43.8445 dc         1 CLA      0.065600
     93 H202       80.2860   60.0554   45.2874 dc         1 CLA      0.065600
     94 H201       81.7259   61.1611   45.4564 dc         1 CLA      0.065600
     95 H193       84.1037   58.6621   43.7693 dc         1 CLA      0.065600
     96 H192       83.3135   60.0733   42.9430 dc         1 CLA      0.065600
     97 H191       83.9416   60.3413   44.4851 dc         1 CLA      0.065600
     98 H172       80.5806   58.0262   44.5188 dc         1 CLA      0.027600
     99 H171       82.0895   57.1542   44.3550 dc         1 CLA      0.027600
    100 H162       82.2831   58.1838   41.8702 dc         1 CLA      0.002900
    101 H161       80.6413   58.7796   42.1907 dc         1 CLA      0.002900
    102 H152       79.9750   56.4509   42.3542 dc         1 CLA      0.029100
    103 H151       81.5958   55.8250   42.1835 dc         1 CLA      0.029100
    104 H143       78.5724   57.0995   40.6026 dc         1 CLA      0.063600
    105 H142       79.6108   58.4405   40.3172 dc         1 CLA      0.063600
    106 H141       79.2117   57.3084   38.9836 dc         1 CLA      0.063600
    107 H122       82.5948   55.9693   39.8034 dc         1 CLA      0.032500
    108 H121       82.2875   57.6786   39.8766 dc         1 CLA      0.032500
    109 H112       81.1885   57.1641   37.5330 dc         1 CLA      0.006600
    110 H111       81.8150   55.6099   37.9809 dc         1 CLA      0.006600
    111 H102       84.0713   56.5766   37.9271 dc         1 CLA      0.024100
    112 H101       83.3001   58.0724   37.2137 dc         1 CLA      0.024100
    113 HHD        70.2523   57.1786   39.1615 da         1 CLA      0.174300
    114 HHC        74.7619   60.6832   42.1616 da         1 CLA      0.136800
    115 HHB        78.7586   59.9286   37.2582 da         1 CLA      0.138300
    116 HBD        73.9741   56.3964   33.3279 dc         1 CLA      0.107700
    117 HAB        76.6083   62.0544   42.6837 da         1 CLA      0.155200
    118 H93        85.4335   56.4384   35.4308 dc         1 CLA      0.069500
    119 H92        84.3937   56.7400   34.0000 dc         1 CLA      0.069500
    120 H91        84.6788   58.0684   35.2967 dc         1 CLA      0.069500
    121 H8         82.5463   56.9417   35.3624 dc         1 CLA      0.029300
    122 H72        82.3986   54.5467   36.2474 dc         1 CLA      0.044400
    123 H71        84.1138   54.3571   35.8915 dc         1 CLA      0.044400
    124 H62        83.7232   54.7295   33.5087 dc         1 CLA      0.015600
    125 H61        82.1818   55.4693   33.8450 dc         1 CLA      0.015600
    126 H52        82.8829   52.5739   34.6750 dc         1 CLA      0.033200
    127 H51        82.4742   53.0771   32.9702 dc         1 CLA      0.033200
    128 H43        79.5116   51.4474   34.9324 dc         1 CLA      0.037000
    129 H42        80.5953   50.7608   33.8356 dc         1 CLA      0.037000
    130 H41        81.1990   51.1825   35.4398 dc         1 CLA      0.037000
    131 H3A        78.0772   59.1703   34.6404 dc         1 CLA      0.041100
    132 H2A        76.9917   56.4054   34.6577 dc         1 CLA      0.083100
    133 H2         79.6192   54.5046   34.9507 da         1 CLA      0.180900
    134 H18        82.4591   58.9291   45.6243 dc         1 CLA     -0.003900
    135 H13        80.2811   55.4905   40.1839 dc         1 CLA      0.019700
    136 H12        78.5082   53.6513   32.5374 dc         1 CLA      0.120400
    137 H11        80.0223   54.2914   32.0282 dc         1 CLA      0.120400
    138 C1         66.5232   61.4010   49.4954 Z1         2 LUT      0.509236
    139 C2         66.4138   62.5482   50.4756 Z2         2 LUT     -0.434695
    140 C3         65.1424   63.4711   50.3060 Z3         2 LUT      0.437453
    141 O3         65.4817   64.7767   50.6608 S1         2 LUT     -0.547129
    142 C4         64.4642   63.3911   48.9722 Z4         2 LUT     -0.468603
    143 C5         65.3671   63.0140   47.8453 Z5         2 LUT      0.279246
    144 C6         66.3071   61.9904   48.0483 Z6         2 LUT     -0.305473
    145 C7         67.4052   61.7040   47.1502 Z7         2 LUT      0.069402
    146 C8         68.0366   62.4201   46.1915 Z8         2 LUT     -0.191631
    147 C9         68.6005   61.9980   44.9335 Z9         2 LUT      0.196698
    148 C10        69.5329   62.7945   44.3558 Y1         2 LUT     -0.208611
    149 C11        70.2978   62.6338   43.1337 Y2         2 LUT      0.030784
    150 C12        71.3658   63.3599   42.6593 Y3         2 LUT     -0.220316
    151 C13        72.0563   63.2096   41.4211 Y4         2 LUT      0.215937
    152 C14        73.3453   63.6346   41.3513 Y5         2 LUT     -0.185793
    153 C15        74.3033   63.4741   40.2783 Y6         2 LUT     -0.057835
    154 C16        65.4742   60.3283   49.9449 Y7         2 LUT     -0.405615
    155 C17        67.8480   60.6549   49.8140 Y7         2 LUT     -0.405615
    156 C18        65.2999   63.8918   46.6115 Y9         2 LUT     -0.369639
    157 C19        68.0051   60.7646   44.2664 W1         2 LUT     -0.333362
    158 C20        71.3771   62.6008   40.2441 W2         2 LUT     -0.323439
    159 C21        85.8640   64.3772   34.0119 Z1         2 LUT      0.406104
    160 C22        86.6484   63.7996   32.8307 Z2         2 LUT     -0.404965
    161 C23        86.9347   64.6978   31.6480 Z3         2 LUT      0.391255
    162 O23        87.5326   63.8018   30.6800 S1         2 LUT     -0.528210
    163 C24        85.6511   65.4104   31.2954 W6         2 LUT     -0.258361
    164 C25        84.5636   65.4944   32.0828 Z5         2 LUT      0.133546
    165 C26        84.5157   64.8269   33.4863 W8         2 LUT     -0.147008
    166 C27        83.7102   65.5060   34.5493 Z7         2 LUT      0.023843
    167 C28        82.4434   65.0885   35.0216 Z8         2 LUT     -0.216987
    168 C29        81.6896   65.5808   36.1421 Z9         2 LUT      0.206524
    169 C30        80.4233   65.1033   36.4710 Y1         2 LUT     -0.215556
    170 C31        79.5790   65.3042   37.5870 Y2         2 LUT      0.025142
    171 C32        78.4073   64.7990   37.8923 Y3         2 LUT     -0.212209
    172 C33        77.6235   64.9380   39.0489 Y4         2 LUT      0.240937
    173 C34        76.4307   64.1799   39.2178 Y5         2 LUT     -0.218862
    174 C35        75.5033   64.1909   40.3065 Y6         2 LUT     -0.023547
    175 C36        86.7273   65.4702   34.8095 Y7         2 LUT     -0.393485
    176 C37        85.6913   63.2333   35.1088 Y7         2 LUT     -0.393485
    177 C38        83.4591   66.5674   31.7582 Y9         2 LUT     -0.387526
    178 C39        82.3792   66.5562   37.0478 W1         2 LUT     -0.322618
    179 C40        77.9517   66.0960   39.9879 W2         2 LUT     -0.358472
    180 H403       77.1059   66.3028   40.6973 R7         2 LUT      0.097720
    181 H402       78.9107   65.9171   40.4882 R7         2 LUT      0.097720
    182 H401       77.9919   67.0610   39.4974 R7         2 LUT      0.097720
    183 H393       82.3086   67.5708   36.7965 R4         2 LUT      0.082505
    184 H392       81.9986   66.4042   38.0232 R4         2 LUT      0.082505
    185 H391       83.4517   66.2838   37.1643 R4         2 LUT      0.082505
    186 H383       83.8613   67.6161   31.8395 R1         2 LUT      0.104030
    187 H382       83.0406   66.3445   30.7497 R1         2 LUT      0.104030
    188 H381       82.5745   66.5659   32.3764 R1         2 LUT      0.104030
    189 H373       85.2194   62.3936   34.7476 T4         2 LUT      0.089537
    190 H372       86.6261   62.8332   35.5589 T4         2 LUT      0.089537
    191 H371       85.1936   63.5404   36.0664 T4         2 LUT      0.089537
    192 H363       86.1486   66.0375   35.4939 T4         2 LUT      0.089537
    193 H362       87.5016   65.0481   35.4459 T4         2 LUT      0.089537
    194 H361       87.2542   66.1433   34.1071 T4         2 LUT      0.089537
    195 H222       87.6287   63.4984   33.1751 U2         2 LUT      0.127376
    196 H221       86.1476   62.9219   32.3518 U2         2 LUT      0.127376
    197 H203       71.7760   62.9546   39.2979 R7         2 LUT      0.087068
    198 H202       71.3759   61.5028   40.1369 R7         2 LUT      0.087068
    199 H201       70.3520   62.8164   40.2346 R7         2 LUT      0.087068
    200 H193       68.7413   59.9541   44.1925 R4         2 LUT      0.089716
    201 H192       67.2345   60.2466   44.7985 R4         2 LUT      0.089716
    202 H191       67.6045   60.9519   43.1981 R4         2 LUT      0.089716
    203 H183       65.6736   63.3396   45.7562 R1         2 LUT      0.094572
    204 H182       64.3133   64.2392   46.5070 R1         2 LUT      0.094572
    205 H181       65.9420   64.7143   46.8359 R1         2 LUT      0.094572
    206 H173       68.7285   61.3080   49.5281 T4         2 LUT      0.093752
    207 H172       67.8116   60.3618   50.9212 T4         2 LUT      0.093752
    208 H171       67.8442   59.7140   49.3001 T4         2 LUT      0.093752
    209 H163       64.4289   60.6263   49.6426 T4         2 LUT      0.093752
    210 H162       65.6946   59.4496   49.3868 T4         2 LUT      0.093752
    211 H161       65.7001   59.9754   50.9996 T4         2 LUT      0.093752
    212 HO3        64.9351   65.2577   51.3035 Q1         2 LUT      0.300121
    213 H8         68.0015   63.5144   46.2894 U7         2 LUT      0.080784
    214 H7         67.4033   60.6235   46.9840 U6         2 LUT      0.042190
    215 H42        63.6080   62.7149   49.0463 U5         2 LUT      0.145166
    216 H41        63.8116   64.3186   48.6424 U5         2 LUT      0.145166
    217 H35        75.7623   64.6737   41.2556 T3         2 LUT      0.077919
    218 H34        76.0884   63.5513   38.4042 T2         2 LUT      0.073626
    219 H32        77.9218   64.1242   37.1872 T1         2 LUT      0.092510
    220 H31        80.0266   65.9438   38.3989 U9         2 LUT      0.070048
    221 H30        79.9433   64.4445   35.6995 U8         2 LUT      0.085442
    222 H3         64.4212   62.9212   50.9829 U3         2 LUT     -0.031596
    223 H28        82.0746   64.1764   34.5142 U7         2 LUT      0.084728
    224 H27        84.1311   66.3748   35.0713 U6         2 LUT      0.087291
    225 H26        83.9825   63.9620   33.2552 Q6         2 LUT      0.075325
    226 H24        85.6084   65.9289   30.3627 Q5         2 LUT      0.094482
    227 H23        87.6741   65.4581   32.0035 U3         2 LUT     -0.024869
    228 H22        66.3040   62.2151   51.5153 U2         2 LUT      0.127376
    229 H21        67.2192   63.2607   50.3098 U2         2 LUT      0.127376
    230 H15        73.9959   62.9629   39.3500 T3         2 LUT      0.093200
    231 H14        73.6499   64.0682   42.2905 T2         2 LUT      0.068865
    232 H12        71.7533   64.0873   43.3544 T1         2 LUT      0.095507
    233 H11        69.9126   61.8898   42.6085 U9         2 LUT      0.068930
    234 H10        69.8456   63.6614   44.9479 U8         2 LUT      0.083911
    235 H1         87.7798   64.3039   29.9148 Q1         2 LUT      0.297311
@<TRIPOS>BOND
    1     6     1 1
    2     7     2 1
    3     8     3 1
    4     9     4 1
    5    11     4 1
    6    12     6 1
    7    13     9 1
    8    16     9 1
    9    25     5 1
   10    25    16 1
   11    26    10 1
   12    26    17 1
   13    27    18 1
   14    28    14 1
   15    28    19 1
   16    29    12 1
   17    30    13 1
   18    31    24 1
   19    32     1 1
   20    32    25 1
   21    33    21 1
   22    33    26 1
   23    34    22 1
   24    34    27 1
   25    35    23 1
   26    35    28 1
   27    36    12 1
   28    36    24 1
   29    37    13 1
   30    37    15 1
   31    38    31 1
   32    39    20 1
   33    39    32 1
   34    40     2 1
   35    40    33 1
   36    41     3 1
   37    41    34 1
   38    42     4 1
   39    42    35 1
   40    43    38 1
   41    44     5 1
   42    44    17 1
   43    44    39 1
   44    45    10 1
   45    45    18 1
   46    45    40 1
   47    46    19 1
   48    46    41 1
   49    47    14 1
   50    47    16 1
   51    47    42 1
   52    48    38 1
   53    49    48 1
   54    50    49 1
   55    51    50 1
   56    52    51 1
   57    53    51 1
   58    54    53 1
   59    55    54 1
   60    56    55 1
   61    57    56 1
   62    58    56 1
   63    59    58 1
   64    60    59 1
   65    61    60 1
   66    62    61 1
   67    63    61 1
   68    64    27 1
   69    64    46 1
   70    65     5 1
   71    65    10 1
   72    65    64 1
   73    65    14 1
   74    66    23 1
   75    67    23 1
   76    68    23 1
   77    69    22 1
   78    70    22 1
   79    71    22 1
   80    72    21 1
   81    73    21 1
   82    74    21 1
   83    75    20 1
   84    76    20 1
   85    77    20 1
   86    78    15 1
   87    79    15 1
   88    80    15 1
   89    81     8 1
   90    82     8 1
   91    83     8 1
   92    84     7 1
   93    85     7 1
   94    86     6 1
   95    87     6 1
   96    88     3 1
   97    89     3 1
   98    90     1 1
   99    91     1 1
  100    92    63 1
  101    93    63 1
  102    94    63 1
  103    95    62 1
  104    96    62 1
  105    97    62 1
  106    98    60 1
  107    99    60 1
  108   100    59 1
  109   101    59 1
  110   102    58 1
  111   103    58 1
  112   104    57 1
  113   105    57 1
  114   106    57 1
  115   107    55 1
  116   108    55 1
  117   109    54 1
  118   110    54 1
  119   111    53 1
  120   112    53 1
  121   113    19 1
  122   114    18 1
  123   115    17 1
  124   116     9 1
  125   117     2 1
  126   118    52 1
  127   119    52 1
  128   120    52 1
  129   121    51 1
  130   122    50 1
  131   123    50 1
  132   124    49 1
  133   125    49 1
  134   126    48 1
  135   127    48 1
  136   128    43 1
  137   129    43 1
  138   130    43 1
  139   131    39 1
  140   132    32 1
  141   133    31 1
  142   134    61 1
  143   135    56 1
  144   136    24 1
  145   137    24 1
  146   139   138 1
  147   140   139 1
  148   141   140 1
  149   142   140 1
  150   143   142 1
  151   144   138 1
  152   144   143 1
  153   145   144 1
  154   146   145 1
  155   147   146 1
  156   148   147 1
  157   149   148 1
  158   150   149 1
  159   151   150 1
  160   152   151 1
  161   153   152 1
  162   154   138 1
  163   155   138 1
  164   156   143 1
  165   157   147 1
  166   158   151 1
  167   160   159 1
  168   161   160 1
  169   162   161 1
  170   163   161 1
  171   164   163 1
  172   165   159 1
  173   165   164 1
  174   166   165 1
  175   167   166 1
  176   168   167 1
  177   169   168 1
  178   170   169 1
  179   171   170 1
  180   172   171 1
  181   173   172 1
  182   174   153 1
  183   174   173 1
  184   175   159 1
  185   176   159 1
  186   177   164 1
  187   178   168 1
  188   179   172 1
  189   180   179 1
  190   181   179 1
  191   182   179 1
  192   183   178 1
  193   184   178 1
  194   185   178 1
  195   186   177 1
  196   187   177 1
  197   188   177 1
  198   189   176 1
  199   190   176 1
  200   191   176 1
  201   192   175 1
  202   193   175 1
  203   194   175 1
  204   195   160 1
  205   196   160 1
  206   197   158 1
  207   198   158 1
  208   199   158 1
  209   200   157 1
  210   201   157 1
  211   202   157 1
  212   203   156 1
  213   204   156 1
  214   205   156 1
  215   206   155 1
  216   207   155 1
  217   208   155 1
  218   209   154 1
  219   210   154 1
  220   211   154 1
  221   212   141 1
  222   213   146 1
  223   214   145 1
  224   215   142 1
  225   216   142 1
  226   217   174 1
  227   218   173 1
  228   219   171 1
  229   220   170 1
  230   221   169 1
  231   222   140 1
  232   223   167 1
  233   224   166 1
  234   225   165 1
  235   226   163 1
  236   227   161 1
  237   228   139 1
  238   229   139 1
  239   230   153 1
  240   231   152 1
  241   232   150 1
  242   233   149 1
  243   234   148 1
  244   235   162 1
  245   65    153 1
  246   65    174 1
@<TRIPOS>SUBSTRUCTURE
      1 CLA               1 ****               0 ****  **** 
      2 LUT             138 ****               0 ****  **** 
