@<TRIPOS>MOLECULE
Cpptraj generated mol2 file.
  235   246     2     0     0
SMALL
USER_CHARGES


@<TRIPOS>ATOM
      1 CAA        77.0604   57.7202   35.3505 a2         1 CLA     -0.055900
      2 CAB        76.8927   61.6354   44.2338 c8         1 CLA     -0.148500
      3 CAC        70.0386   57.5411   43.5461 a2         1 CLA     -0.012600
      4 CAD        72.7871   55.4823   36.4207 ck         1 CLA      0.398800
      5 NA         76.0007   58.3613   38.6257 ns         1 CLA     -0.225500
      6 CBA        78.3704   57.5368   34.5201 a2         1 CLA     -0.135000
      7 CBB        77.6548   62.6660   44.4853 c0         1 CLA     -0.395200
      8 CBC        70.2124   56.0112   43.5569 a3         1 CLA     -0.037700
      9 CBD        74.2984   55.8848   36.1818 a1         1 CLA     -0.053900
     10 NB         75.7499   59.9294   41.1093 nm         1 CLA     -0.295700
     11 OBD        72.1200   54.7444   35.7268 o2         1 CLA     -0.494600
     12 CGA        78.7745   56.0444   34.1988 c4         1 CLA      0.827000
     13 CGD        75.1271   54.6070   36.1836 c4         1 CLA      0.655300
     14 ND         73.1470   57.6830   39.1965 nm         1 CLA     -0.291600
     15 CED        75.2537   52.5968   37.4674 a3         1 CLA      0.005400
     16 CHA        74.6312   56.8743   37.2915 cs         1 CLA     -0.123800
     17 CHB        77.7554   59.7019   39.6266 aa         1 CLA     -0.291900
     18 CHC        74.4289   60.2292   43.1726 aa         1 CLA     -0.090400
     19 CHD        71.2374   57.5949   40.7447 aa         1 CLA     -0.052000
     20 CMA        79.4406   57.4601   38.2395 a3         1 CLA     -0.230700
     21 CMB        79.1713   61.4093   41.9285 a3         1 CLA     -0.180800
     22 CMC        72.3011   59.3183   45.3624 a3         1 CLA     -0.134000
     23 CMD        70.0357   55.7208   38.5865 a3         1 CLA     -0.141100
     24 C1         79.6319   54.1146   35.2355 a2         1 CLA      0.023000
     25 C1A        75.8397   57.5409   37.5797 ac         1 CLA     -0.015100
     26 C1B        77.0951   60.1918   40.7869 cr         1 CLA      0.054700
     27 C1C        73.2858   59.4567   42.9260 cn         1 CLA     -0.005600
     28 C1D        71.9005   57.2145   39.5255 ap         1 CLA     -0.047300
     29 O1A        78.8641   55.4819   33.1227 o2         1 CLA     -0.610800
     30 O1D        75.8721   54.2183   35.2606 o2         1 CLA     -0.558200
     31 C2         80.2532   53.7503   36.5530 c8         1 CLA     -0.325100
     32 C2A        77.1708   57.3117   36.8340 a1         1 CLA      0.098600
     33 C2B        77.7353   60.9001   41.8789 cb         1 CLA      0.088500
     34 C2C        72.2164   59.0881   43.8913 cb         1 CLA      0.053700
     35 C2D        71.4054   56.3210   38.5359 cb         1 CLA      0.058900
     36 O2A        79.3374   55.5106   35.3286 o1         1 CLA     -0.437200
     37 O2D        74.9553   54.0230   37.3733 o1         1 CLA     -0.357600
     38 C3         81.1166   52.7584   36.9696 c5         1 CLA      0.031200
     39 C3A        78.1943   58.1836   37.5722 a1         1 CLA      0.166800
     40 C3B        76.7426   61.0385   42.8629 cb         1 CLA      0.035000
     41 C3C        71.3533   58.2440   43.0856 cb         1 CLA     -0.089900
     42 C3D        72.4262   56.1658   37.6405 cb         1 CLA     -0.035900
     43 C4         80.6269   51.3817   37.4165 a3         1 CLA     -0.053300
     44 C4A        77.3071   58.8185   38.6632 ac         1 CLA      0.001800
     45 C4B        75.6112   60.3597   42.3913 cn         1 CLA     -0.020900
     46 C4C        71.8335   58.2986   41.7356 cr         1 CLA     -0.044400
     47 C4D        73.4445   56.9468   38.0757 c6         1 CLA     -0.046000
     48 C5         82.6189   52.9112   36.8675 a2         1 CLA     -0.070400
     49 C6         83.2663   54.2352   36.9582 a2         1 CLA      0.043900
     50 C7         83.2355   54.8574   38.3530 a2         1 CLA     -0.150000
     51 C8         83.2844   56.3697   38.4637 a1         1 CLA      0.064200
     52 C9         84.3908   57.1046   37.5622 a3         1 CLA     -0.259300
     53 C10        83.4876   56.8588   39.9770 a2         1 CLA     -0.071900
     54 C11        82.5366   56.2688   41.0449 a2         1 CLA      0.014500
     55 C12        82.4759   57.2148   42.3060 a2         1 CLA     -0.112100
     56 C13        83.6506   57.1388   43.3840 a1         1 CLA      0.089200
     57 C14        83.5654   55.8391   44.1764 a3         1 CLA     -0.239100
     58 C15        83.6195   58.4147   44.3054 a2         1 CLA     -0.102200
     59 C16        82.2472   58.6962   45.1166 a2         1 CLA      0.023900
     60 C17        82.3230   60.0926   45.7647 a2         1 CLA     -0.105700
     61 C18        81.1316   60.5905   46.5735 a1         1 CLA      0.206800
     62 C19        81.3509   62.0494   46.9732 a3         1 CLA     -0.280100
     63 C20        79.7962   60.2983   45.9387 a3         1 CLA     -0.280100
     64 NC         73.0358   58.9674   41.6563 nx         1 CLA     -0.309200
     65 MG         74.4469   58.8579   40.1095 mg         1 CLA      0.895000
     66 HMD3       69.2953   56.5875   38.3027 dc         1 CLA      0.064300
     67 HMD2       69.8876   54.8617   37.9512 dc         1 CLA      0.064300
     68 HMD1       69.9800   55.4119   39.6048 dc         1 CLA      0.064300
     69 HMC3       71.5934   58.6153   45.8773 dc         1 CLA      0.052100
     70 HMC2       73.2891   59.2576   45.7233 dc         1 CLA      0.052100
     71 HMC1       71.8194   60.3038   45.6259 dc         1 CLA      0.052100
     72 HMB3       79.2142   62.3509   41.4397 dc         1 CLA      0.063600
     73 HMB2       79.4709   61.3088   43.0017 dc         1 CLA      0.063600
     74 HMB1       79.7925   60.7290   41.3626 dc         1 CLA      0.063600
     75 HMA3       80.2399   57.0929   37.4998 dc         1 CLA      0.058300
     76 HMA2       79.8997   58.2091   38.8831 dc         1 CLA      0.058300
     77 HMA1       79.1282   56.5805   38.7891 dc         1 CLA      0.058300
     78 HED3       74.7562   52.0684   36.7020 dc         1 CLA      0.079300
     79 HED2       76.3442   52.5879   37.3811 dc         1 CLA      0.079300
     80 HED1       75.0621   52.2475   38.4805 dc         1 CLA      0.079300
     81 HBC3       71.1136   55.7589   44.2216 dc         1 CLA      0.016300
     82 HBC2       69.3336   55.5946   43.9890 dc         1 CLA      0.016300
     83 HBC1       70.3631   55.5857   42.5606 dc         1 CLA      0.016300
     84 HBB2       77.8151   63.1622   45.4843 da         1 CLA      0.183000
     85 HBB1       78.1917   63.1320   43.6252 da         1 CLA      0.183000
     86 HBA2       78.2995   58.0614   33.5646 dc         1 CLA      0.029400
     87 HBA1       79.1734   57.9445   35.1238 dc         1 CLA      0.029400
     88 HAC2       69.7577   57.8693   44.5281 dc         1 CLA      0.029300
     89 HAC1       69.2828   57.8517   42.8330 dc         1 CLA      0.029300
     90 HAA2       76.2784   57.1512   34.7737 dc         1 CLA      0.028700
     91 HAA1       76.8630   58.7559   35.2111 dc         1 CLA      0.028700
     92 H203       78.9719   60.8103   46.4571 dc         1 CLA      0.065600
     93 H202       79.8152   60.6712   44.9618 dc         1 CLA      0.065600
     94 H201       79.5637   59.2400   45.8289 dc         1 CLA      0.065600
     95 H193       80.7009   62.1319   47.8907 dc         1 CLA      0.065600
     96 H192       82.4606   62.2442   47.2416 dc         1 CLA      0.065600
     97 H191       81.0695   62.6927   46.0709 dc         1 CLA      0.065600
     98 H172       83.3011   60.3666   46.3360 dc         1 CLA      0.027600
     99 H171       82.4787   60.7669   44.8755 dc         1 CLA      0.027600
    100 H162       81.4371   58.6825   44.3725 dc         1 CLA      0.002900
    101 H161       82.2036   57.9232   45.9027 dc         1 CLA      0.002900
    102 H152       84.5113   58.5044   44.9728 dc         1 CLA      0.029100
    103 H151       83.7587   59.3076   43.6613 dc         1 CLA      0.029100
    104 H143       83.9523   54.9549   43.6123 dc         1 CLA      0.063600
    105 H142       84.1864   55.9306   44.9822 dc         1 CLA      0.063600
    106 H141       82.5049   55.6761   44.6110 dc         1 CLA      0.063600
    107 H122       82.4067   58.2560   41.9512 dc         1 CLA      0.032500
    108 H121       81.5567   57.0851   42.8455 dc         1 CLA      0.032500
    109 H112       81.5065   56.2227   40.7469 dc         1 CLA      0.006600
    110 H111       82.8162   55.2726   41.3178 dc         1 CLA      0.006600
    111 H102       84.4404   56.6357   40.4189 dc         1 CLA      0.024100
    112 H101       83.3639   57.9433   40.1388 dc         1 CLA      0.024100
    113 HHD        70.2770   57.0617   40.9194 da         1 CLA      0.174300
    114 HHC        74.4287   60.7590   44.1375 da         1 CLA      0.136800
    115 HHB        78.8158   60.0079   39.5294 da         1 CLA      0.138300
    116 HBD        74.2945   56.2516   35.1404 dc         1 CLA      0.107700
    117 HAB        76.3706   61.2949   45.0468 da         1 CLA      0.155200
    118 H93        85.3532   56.6617   37.7789 dc         1 CLA      0.069500
    119 H92        84.1038   56.8985   36.5022 dc         1 CLA      0.069500
    120 H91        84.2649   58.1562   37.8155 dc         1 CLA      0.069500
    121 H8         82.2594   56.6509   38.0630 dc         1 CLA      0.029300
    122 H72        82.3338   54.5316   38.8906 dc         1 CLA      0.044400
    123 H71        84.1553   54.4860   38.8487 dc         1 CLA      0.044400
    124 H62        84.2684   54.2725   36.5800 dc         1 CLA      0.015600
    125 H61        82.6506   54.8470   36.2964 dc         1 CLA      0.015600
    126 H52        83.1893   52.1921   37.5527 dc         1 CLA      0.033200
    127 H51        82.7889   52.4702   35.9437 dc         1 CLA      0.033200
    128 H43        81.0503   51.3358   38.4732 dc         1 CLA      0.037000
    129 H42        79.5493   51.3289   37.3454 dc         1 CLA      0.037000
    130 H41        80.9550   50.4966   36.8563 dc         1 CLA      0.037000
    131 H3A        78.5214   58.9898   36.9504 dc         1 CLA      0.041100
    132 H2A        77.5274   56.3269   36.8989 dc         1 CLA      0.083100
    133 H2         80.1131   54.5318   37.3134 da         1 CLA      0.180900
    134 H18        81.0642   60.0231   47.5120 dc         1 CLA     -0.003900
    135 H13        84.6233   57.0622   42.8847 dc         1 CLA      0.019700
    136 H12        78.6232   53.7456   35.2172 dc         1 CLA      0.120400
    137 H11        80.2199   53.7113   34.3826 dc         1 CLA      0.120400
    138 C1         67.4638   61.6455   50.8810 Z1         2 LUT      0.509236
    139 C2         66.1983   61.5123   51.5523 Z2         2 LUT     -0.434695
    140 C3         65.5838   62.9463   51.8859 Z3         2 LUT      0.437453
    141 O3         66.0803   63.6394   53.0685 S1         2 LUT     -0.547129
    142 C4         65.5633   63.8418   50.6799 Z4         2 LUT     -0.468603
    143 C5         66.5505   63.5676   49.5895 Z5         2 LUT      0.279246
    144 C6         67.3146   62.4315   49.5918 Z6         2 LUT     -0.305473
    145 C7         67.7787   61.9370   48.2795 Z7         2 LUT      0.069402
    146 C8         68.3740   62.5680   47.2130 Z8         2 LUT     -0.191631
    147 C9         69.0662   61.9281   46.0249 Z9         2 LUT      0.196698
    148 C10        69.9502   62.7213   45.2868 Y1         2 LUT     -0.208611
    149 C11        70.7356   62.5051   44.0532 Y2         2 LUT      0.030784
    150 C12        71.8499   63.1869   43.6901 Y3         2 LUT     -0.220316
    151 C13        72.7437   63.0830   42.5654 Y4         2 LUT      0.215937
    152 C14        73.9404   63.7623   42.5576 Y5         2 LUT     -0.185793
    153 C15        75.0079   63.6982   41.5860 Y6         2 LUT     -0.057835
    154 C16        67.9229   60.1894   50.6063 Y7         2 LUT     -0.405615
    155 C17        68.5751   62.3491   51.8078 Y7         2 LUT     -0.405615
    156 C18        66.1829   64.3473   48.3991 Y9         2 LUT     -0.369639
    157 C19        68.5895   60.5345   45.6614 W1         2 LUT     -0.333362
    158 C20        72.3266   62.3095   41.3273 W2         2 LUT     -0.323439
    159 C21        86.0574   64.7520   35.4032 Z1         2 LUT      0.406104
    160 C22        86.7116   64.2611   34.0768 Z2         2 LUT     -0.404965
    161 C23        87.0617   65.3112   33.0522 Z3         2 LUT      0.391255
    162 O23        87.7554   64.6961   31.9322 S1         2 LUT     -0.528210
    163 C24        85.9701   66.3278   32.8488 W6         2 LUT     -0.258361
    164 C25        84.8701   66.3493   33.6205 Z5         2 LUT      0.133546
    165 C26        84.7171   65.5091   34.8837 W8         2 LUT     -0.147008
    166 C27        83.9853   66.2727   35.9320 Z7         2 LUT      0.023843
    167 C28        82.9480   65.6940   36.6701 Z8         2 LUT     -0.216987
    168 C29        82.2571   66.3575   37.8006 Z9         2 LUT      0.206524
    169 C30        81.2204   65.6897   38.2603 Y1         2 LUT     -0.215556
    170 C31        80.4143   65.9407   39.4347 Y2         2 LUT      0.025142
    171 C32        79.3037   65.1587   39.7248 Y3         2 LUT     -0.212209
    172 C33        78.4140   65.3289   40.8090 Y4         2 LUT      0.240937
    173 C34        77.1957   64.6970   40.6601 Y5         2 LUT     -0.218862
    174 C35        76.0666   64.6688   41.6256 Y6         2 LUT     -0.023547
    175 C36        87.0486   65.6224   36.2163 Y7         2 LUT     -0.393485
    176 C37        85.5921   63.4755   36.0834 Y7         2 LUT     -0.393485
    177 C38        83.7020   67.2724   33.1833 Y9         2 LUT     -0.387526
    178 C39        82.9325   67.5536   38.4110 W1         2 LUT     -0.322618
    179 C40        78.7923   65.9324   42.1392 W2         2 LUT     -0.358472
    180 H403       78.2238   65.5541   42.9411 R7         2 LUT      0.097720
    181 H402       79.8276   65.8730   42.3578 R7         2 LUT      0.097720
    182 H401       78.6122   66.9954   41.9903 R7         2 LUT      0.097720
    183 H393       83.1119   68.3645   37.6472 R4         2 LUT      0.082505
    184 H392       82.2691   68.0205   39.2303 R4         2 LUT      0.082505
    185 H391       83.9264   67.2488   38.8400 R4         2 LUT      0.082505
    186 H383       84.1689   68.1722   32.8434 R1         2 LUT      0.104030
    187 H382       83.1063   66.7749   32.4866 R1         2 LUT      0.104030
    188 H381       83.1026   67.5632   33.9836 R1         2 LUT      0.104030
    189 H373       85.1177   63.5808   37.1309 T4         2 LUT      0.089537
    190 H372       84.9096   62.9747   35.3895 T4         2 LUT      0.089537
    191 H371       86.3692   62.7351   36.2202 T4         2 LUT      0.089537
    192 H363       88.0059   65.0906   36.4048 T4         2 LUT      0.089537
    193 H362       87.2100   66.5342   35.6185 T4         2 LUT      0.089537
    194 H361       86.5581   65.8853   37.2228 T4         2 LUT      0.089537
    195 H222       87.6265   63.5579   34.0665 U2         2 LUT      0.127376
    196 H221       85.9668   63.6274   33.6406 U2         2 LUT      0.127376
    197 H203       71.4768   61.6334   41.4135 R7         2 LUT      0.087068
    198 H202       72.2518   62.9324   40.4664 R7         2 LUT      0.087068
    199 H201       73.1578   61.5918   41.0585 R7         2 LUT      0.087068
    200 H193       68.9314   60.1591   44.6702 R4         2 LUT      0.089716
    201 H192       68.8782   59.8026   46.4339 R4         2 LUT      0.089716
    202 H191       67.5405   60.3894   45.5705 R4         2 LUT      0.089716
    203 H183       65.7889   63.5966   47.6891 R1         2 LUT      0.094572
    204 H182       65.4497   65.1076   48.6292 R1         2 LUT      0.094572
    205 H181       67.0976   64.8892   48.0951 R1         2 LUT      0.094572
    206 H173       69.5506   62.2456   51.2657 T4         2 LUT      0.093752
    207 H172       68.4963   63.4132   52.0135 T4         2 LUT      0.093752
    208 H171       68.6504   61.8377   52.7543 T4         2 LUT      0.093752
    209 H163       68.2431   59.7607   51.5511 T4         2 LUT      0.093752
    210 H162       67.1832   59.5900   50.1799 T4         2 LUT      0.093752
    211 H161       68.7754   60.0816   49.9838 T4         2 LUT      0.093752
    212 HO3        66.2417   63.0386   53.8054 Q1         2 LUT      0.300121
    213 H8         68.5679   63.6309   47.3534 U7         2 LUT      0.080784
    214 H7         67.9503   60.9165   48.1623 U6         2 LUT      0.042190
    215 H42        64.5925   63.4792   50.2358 U5         2 LUT      0.145166
    216 H41        65.5733   64.8508   51.0371 U5         2 LUT      0.145166
    217 H35        76.1809   65.5068   42.3361 T3         2 LUT      0.077919
    218 H34        77.0324   64.0089   39.8048 T2         2 LUT      0.073626
    219 H32        79.0025   64.3945   38.9415 T1         2 LUT      0.092510
    220 H31        80.5718   66.7866   40.0442 U9         2 LUT      0.070048
    221 H30        80.8742   64.8228   37.7650 U8         2 LUT      0.085442
    222 H3         64.5067   62.7413   52.0812 U3         2 LUT     -0.031596
    223 H28        82.5709   64.7412   36.3377 U7         2 LUT      0.084728
    224 H27        84.4717   67.2451   36.2505 U6         2 LUT      0.087291
    225 H26        84.0895   64.8633   34.2636 Q6         2 LUT      0.075325
    226 H24        86.0216   66.8808   31.9068 Q5         2 LUT      0.094482
    227 H23        87.9384   65.8983   33.4982 U3         2 LUT     -0.024869
    228 H22        65.3727   61.0528   50.9490 U2         2 LUT      0.127376
    229 H21        66.3624   60.9778   52.4579 U2         2 LUT      0.127376
    230 H15        75.0311   62.9912   40.8109 T3         2 LUT      0.093200
    231 H14        74.1881   64.3400   43.4857 T2         2 LUT      0.068865
    232 H12        72.0446   64.0169   44.3334 T1         2 LUT      0.095507
    233 H11        70.3279   61.7182   43.4975 U9         2 LUT      0.068930
    234 H10        70.1335   63.6960   45.7752 U8         2 LUT      0.083911
    235 H1         87.1673   64.4666   31.2043 Q1         2 LUT      0.297311
@<TRIPOS>BOND
    1     6     1 1
    2     7     2 1
    3     8     3 1
    4     9     4 1
    5    11     4 1
    6    12     6 1
    7    13     9 1
    8    16     9 1
    9    25     5 1
   10    25    16 1
   11    26    10 1
   12    26    17 1
   13    27    18 1
   14    28    14 1
   15    28    19 1
   16    29    12 1
   17    30    13 1
   18    31    24 1
   19    32     1 1
   20    32    25 1
   21    33    21 1
   22    33    26 1
   23    34    22 1
   24    34    27 1
   25    35    23 1
   26    35    28 1
   27    36    12 1
   28    36    24 1
   29    37    13 1
   30    37    15 1
   31    38    31 1
   32    39    20 1
   33    39    32 1
   34    40     2 1
   35    40    33 1
   36    41     3 1
   37    41    34 1
   38    42     4 1
   39    42    35 1
   40    43    38 1
   41    44     5 1
   42    44    17 1
   43    44    39 1
   44    45    10 1
   45    45    18 1
   46    45    40 1
   47    46    19 1
   48    46    41 1
   49    47    14 1
   50    47    16 1
   51    47    42 1
   52    48    38 1
   53    49    48 1
   54    50    49 1
   55    51    50 1
   56    52    51 1
   57    53    51 1
   58    54    53 1
   59    55    54 1
   60    56    55 1
   61    57    56 1
   62    58    56 1
   63    59    58 1
   64    60    59 1
   65    61    60 1
   66    62    61 1
   67    63    61 1
   68    64    27 1
   69    64    46 1
   70    65     5 1
   71    65    10 1
   72    65    64 1
   73    65    14 1
   74    66    23 1
   75    67    23 1
   76    68    23 1
   77    69    22 1
   78    70    22 1
   79    71    22 1
   80    72    21 1
   81    73    21 1
   82    74    21 1
   83    75    20 1
   84    76    20 1
   85    77    20 1
   86    78    15 1
   87    79    15 1
   88    80    15 1
   89    81     8 1
   90    82     8 1
   91    83     8 1
   92    84     7 1
   93    85     7 1
   94    86     6 1
   95    87     6 1
   96    88     3 1
   97    89     3 1
   98    90     1 1
   99    91     1 1
  100    92    63 1
  101    93    63 1
  102    94    63 1
  103    95    62 1
  104    96    62 1
  105    97    62 1
  106    98    60 1
  107    99    60 1
  108   100    59 1
  109   101    59 1
  110   102    58 1
  111   103    58 1
  112   104    57 1
  113   105    57 1
  114   106    57 1
  115   107    55 1
  116   108    55 1
  117   109    54 1
  118   110    54 1
  119   111    53 1
  120   112    53 1
  121   113    19 1
  122   114    18 1
  123   115    17 1
  124   116     9 1
  125   117     2 1
  126   118    52 1
  127   119    52 1
  128   120    52 1
  129   121    51 1
  130   122    50 1
  131   123    50 1
  132   124    49 1
  133   125    49 1
  134   126    48 1
  135   127    48 1
  136   128    43 1
  137   129    43 1
  138   130    43 1
  139   131    39 1
  140   132    32 1
  141   133    31 1
  142   134    61 1
  143   135    56 1
  144   136    24 1
  145   137    24 1
  146   139   138 1
  147   140   139 1
  148   141   140 1
  149   142   140 1
  150   143   142 1
  151   144   138 1
  152   144   143 1
  153   145   144 1
  154   146   145 1
  155   147   146 1
  156   148   147 1
  157   149   148 1
  158   150   149 1
  159   151   150 1
  160   152   151 1
  161   153   152 1
  162   154   138 1
  163   155   138 1
  164   156   143 1
  165   157   147 1
  166   158   151 1
  167   160   159 1
  168   161   160 1
  169   162   161 1
  170   163   161 1
  171   164   163 1
  172   165   159 1
  173   165   164 1
  174   166   165 1
  175   167   166 1
  176   168   167 1
  177   169   168 1
  178   170   169 1
  179   171   170 1
  180   172   171 1
  181   173   172 1
  182   174   153 1
  183   174   173 1
  184   175   159 1
  185   176   159 1
  186   177   164 1
  187   178   168 1
  188   179   172 1
  189   180   179 1
  190   181   179 1
  191   182   179 1
  192   183   178 1
  193   184   178 1
  194   185   178 1
  195   186   177 1
  196   187   177 1
  197   188   177 1
  198   189   176 1
  199   190   176 1
  200   191   176 1
  201   192   175 1
  202   193   175 1
  203   194   175 1
  204   195   160 1
  205   196   160 1
  206   197   158 1
  207   198   158 1
  208   199   158 1
  209   200   157 1
  210   201   157 1
  211   202   157 1
  212   203   156 1
  213   204   156 1
  214   205   156 1
  215   206   155 1
  216   207   155 1
  217   208   155 1
  218   209   154 1
  219   210   154 1
  220   211   154 1
  221   212   141 1
  222   213   146 1
  223   214   145 1
  224   215   142 1
  225   216   142 1
  226   217   174 1
  227   218   173 1
  228   219   171 1
  229   220   170 1
  230   221   169 1
  231   222   140 1
  232   223   167 1
  233   224   166 1
  234   225   165 1
  235   226   163 1
  236   227   161 1
  237   228   139 1
  238   229   139 1
  239   230   153 1
  240   231   152 1
  241   232   150 1
  242   233   149 1
  243   234   148 1
  244   235   162 1
  245   65    153 1
  246   65    174 1
@<TRIPOS>SUBSTRUCTURE
      1 CLA               1 ****               0 ****  **** 
      2 LUT             138 ****               0 ****  **** 
