@<TRIPOS>MOLECULE
Cpptraj generated mol2 file.
  235   246     2     0     0
SMALL
USER_CHARGES


@<TRIPOS>ATOM
      1 CAA        77.9137   57.0003   33.5929 a2         1 CLA     -0.055900
      2 CAB        78.1756   61.1307   42.4503 c8         1 CLA     -0.148500
      3 CAC        71.1454   57.2845   42.1205 a2         1 CLA     -0.012600
      4 CAD        73.5149   54.7237   34.7491 ck         1 CLA      0.398800
      5 NA         76.9144   57.5249   36.9910 ns         1 CLA     -0.225500
      6 CBA        79.2766   56.7677   32.8383 a2         1 CLA     -0.135000
      7 CBB        79.3683   61.2533   43.0712 c0         1 CLA     -0.395200
      8 CBC        71.1799   55.7170   42.1067 a3         1 CLA     -0.037700
      9 CBD        75.0384   55.1829   34.3986 a1         1 CLA     -0.053900
     10 NB         76.9443   59.2466   39.5230 nm         1 CLA     -0.295700
     11 OBD        72.8124   53.9874   34.0896 o2         1 CLA     -0.494600
     12 CGA        79.6872   55.3167   32.6974 c4         1 CLA      0.827000
     13 CGD        75.8732   53.9917   34.3556 c4         1 CLA      0.655300
     14 ND         74.0653   56.8827   37.4544 nm         1 CLA     -0.291600
     15 CED        76.8298   52.1589   35.6324 a3         1 CLA      0.005400
     16 CHA        75.4758   56.1399   35.5365 cs         1 CLA     -0.123800
     17 CHB        78.7214   58.8714   37.9841 aa         1 CLA     -0.291900
     18 CHC        75.5825   59.5901   41.5640 aa         1 CLA     -0.090400
     19 CHD        72.2093   56.9078   39.1814 aa         1 CLA     -0.052000
     20 CMA        80.4015   56.6971   36.1906 a3         1 CLA     -0.230700
     21 CMB        80.3538   60.8408   39.9262 a3         1 CLA     -0.180800
     22 CMC        73.4240   58.9112   43.6846 a3         1 CLA     -0.134000
     23 CMD        70.7428   55.1065   37.0808 a3         1 CLA     -0.141100
     24 C1         80.6484   53.4347   33.7858 a2         1 CLA      0.023000
     25 C1A        76.6997   56.7268   35.8762 ac         1 CLA     -0.015100
     26 C1B        78.2512   59.4611   39.1384 cr         1 CLA      0.054700
     27 C1C        74.4498   58.8382   41.3027 cn         1 CLA     -0.005600
     28 C1D        72.7611   56.4579   37.9102 ap         1 CLA     -0.047300
     29 O1A        79.1725   54.5117   31.9540 o2         1 CLA     -0.610800
     30 O1D        76.6088   53.7701   33.4130 o2         1 CLA     -0.558200
     31 C2         81.1995   53.1105   35.1445 c8         1 CLA     -0.325100
     32 C2A        78.0113   56.5045   35.0752 a1         1 CLA      0.098600
     33 C2B        78.9269   60.3136   40.0846 cb         1 CLA      0.088500
     34 C2C        73.4697   58.4742   42.2181 cb         1 CLA      0.053700
     35 C2D        72.1952   55.6145   36.9354 cb         1 CLA      0.058900
     36 O2A        80.5687   54.8877   33.6805 o1         1 CLA     -0.437200
     37 O2D        75.9363   53.3074   35.5303 o1         1 CLA     -0.357600
     38 C3         81.7503   51.8814   35.3682 c5         1 CLA      0.031200
     39 C3A        78.9970   57.4223   35.8794 a1         1 CLA      0.166800
     40 C3B        78.0433   60.4879   41.1235 cb         1 CLA      0.035000
     41 C3C        72.4684   57.8192   41.5070 cb         1 CLA     -0.089900
     42 C3D        73.1898   55.4225   35.9822 cb         1 CLA     -0.035900
     43 C4         80.9753   50.6962   35.7961 a3         1 CLA     -0.053300
     44 C4A        78.1862   57.9381   37.0537 ac         1 CLA      0.001800
     45 C4B        76.7883   59.7677   40.7759 cn         1 CLA     -0.020900
     46 C4C        72.9177   57.6389   40.1925 cr         1 CLA     -0.044400
     47 C4D        74.3045   56.2455   36.2942 c6         1 CLA     -0.046000
     48 C5         83.1643   51.6030   34.8650 a2         1 CLA     -0.070400
     49 C6         84.2843   52.6936   35.1620 a2         1 CLA      0.043900
     50 C7         84.2269   52.9530   36.6781 a2         1 CLA     -0.150000
     51 C8         84.9093   54.2381   37.2556 a1         1 CLA      0.064200
     52 C9         86.4100   54.1553   36.9298 a3         1 CLA     -0.259300
     53 C10        84.6650   54.4212   38.8357 a2         1 CLA     -0.071900
     54 C11        83.3135   54.6955   39.2747 a2         1 CLA      0.014500
     55 C12        83.3953   55.1531   40.6564 a2         1 CLA     -0.112100
     56 C13        82.0765   55.7308   41.1907 a1         1 CLA      0.089200
     57 C14        81.4964   56.9142   40.3758 a3         1 CLA     -0.239100
     58 C15        82.2857   56.0190   42.6858 a2         1 CLA     -0.102200
     59 C16        83.0243   57.2897   43.0882 a2         1 CLA      0.023900
     60 C17        82.9264   57.5348   44.6159 a2         1 CLA     -0.105700
     61 C18        83.9188   58.5883   45.1585 a1         1 CLA      0.206800
     62 C19        83.2366   59.3061   46.3767 a3         1 CLA     -0.280100
     63 C20        85.3267   58.0798   45.6027 a3         1 CLA     -0.280100
     64 NC         74.1913   58.1851   40.0947 nx         1 CLA     -0.309200
     65 MG         75.4960   58.1022   38.4024 mg         1 CLA      0.895000
     66 HMD3       70.4820   54.7907   38.1081 dc         1 CLA      0.064300
     67 HMD2       70.1158   55.9645   36.8697 dc         1 CLA      0.064300
     68 HMD1       70.4382   54.3894   36.3965 dc         1 CLA      0.064300
     69 HMC3       72.7635   58.2709   44.3417 dc         1 CLA      0.052100
     70 HMC2       74.4155   58.9120   44.1264 dc         1 CLA      0.052100
     71 HMC1       73.0887   59.9568   43.5709 dc         1 CLA      0.052100
     72 HMB3       80.4551   61.2259   38.9201 dc         1 CLA      0.063600
     73 HMB2       80.4548   61.6814   40.6216 dc         1 CLA      0.063600
     74 HMB1       81.1126   60.1216   40.2028 dc         1 CLA      0.063600
     75 HMA3       81.0047   56.4559   35.2910 dc         1 CLA      0.058300
     76 HMA2       80.9805   57.4112   36.7556 dc         1 CLA      0.058300
     77 HMA1       80.2615   55.8265   36.7718 dc         1 CLA      0.058300
     78 HED3       76.8019   51.4247   34.8526 dc         1 CLA      0.079300
     79 HED2       77.8457   52.5257   35.6562 dc         1 CLA      0.079300
     80 HED1       76.6015   51.6193   36.5076 dc         1 CLA      0.079300
     81 HBC3       70.9558   55.3008   41.1018 dc         1 CLA      0.016300
     82 HBC2       72.1961   55.2190   42.2862 dc         1 CLA      0.016300
     83 HBC1       70.4409   55.3251   42.8240 dc         1 CLA      0.016300
     84 HBB2       79.3529   62.0006   43.8856 da         1 CLA      0.183000
     85 HBB1       80.3423   61.1117   42.6444 da         1 CLA      0.183000
     86 HBA2       79.2257   57.0742   31.7825 dc         1 CLA      0.029400
     87 HBA1       80.0839   57.2939   33.3562 dc         1 CLA      0.029400
     88 HAC2       71.1017   57.5918   43.1799 dc         1 CLA      0.029300
     89 HAC1       70.2964   57.5819   41.5641 dc         1 CLA      0.029300
     90 HAA2       77.0583   56.4669   33.2243 dc         1 CLA      0.028700
     91 HAA1       77.7702   58.0458   33.6315 dc         1 CLA      0.028700
     92 H203       85.9130   58.9238   46.0124 dc         1 CLA      0.065600
     93 H202       85.2085   57.2394   46.2214 dc         1 CLA      0.065600
     94 H201       85.8567   57.6718   44.7238 dc         1 CLA      0.065600
     95 H193       83.8607   60.1920   46.5393 dc         1 CLA      0.065600
     96 H192       82.2106   59.6220   46.0090 dc         1 CLA      0.065600
     97 H191       83.2658   58.6662   47.2265 dc         1 CLA      0.065600
     98 H172       81.9477   57.7597   44.8353 dc         1 CLA      0.027600
     99 H171       83.2308   56.6027   45.1478 dc         1 CLA      0.027600
    100 H162       84.0105   57.2118   42.7284 dc         1 CLA      0.002900
    101 H161       82.5943   58.1331   42.5605 dc         1 CLA      0.002900
    102 H152       81.2818   56.0307   42.9992 dc         1 CLA      0.029100
    103 H151       82.7307   55.1232   43.1682 dc         1 CLA      0.029100
    104 H143       81.2085   56.3661   39.4172 dc         1 CLA      0.063600
    105 H142       80.6035   57.2846   40.8190 dc         1 CLA      0.063600
    106 H141       82.2275   57.7104   40.1533 dc         1 CLA      0.063600
    107 H122       83.8498   54.4050   41.3136 dc         1 CLA      0.032500
    108 H121       84.0941   55.9957   40.6892 dc         1 CLA      0.032500
    109 H112       82.8516   55.3929   38.5761 dc         1 CLA      0.006600
    110 H111       82.7802   53.6965   39.2395 dc         1 CLA      0.006600
    111 H102       85.1143   53.6210   39.4712 dc         1 CLA      0.024100
    112 H101       85.2597   55.2846   39.1649 dc         1 CLA      0.024100
    113 HHD        71.2532   56.6465   39.5448 da         1 CLA      0.174300
    114 HHC        75.5530   60.2194   42.4670 da         1 CLA      0.136800
    115 HHB        79.8217   59.0985   37.8474 da         1 CLA      0.138300
    116 HBD        75.0058   55.7966   33.5481 dc         1 CLA      0.107700
    117 HAB        77.2955   61.4430   42.9106 da         1 CLA      0.155200
    118 H93        86.8965   53.2233   37.2933 dc         1 CLA      0.069500
    119 H92        86.6294   54.1588   35.8656 dc         1 CLA      0.069500
    120 H91        86.9502   55.0868   37.1743 dc         1 CLA      0.069500
    121 H8         84.5592   55.1640   36.9644 dc         1 CLA      0.029300
    122 H72        83.2790   53.0463   37.1044 dc         1 CLA      0.044400
    123 H71        84.7651   52.1679   37.1570 dc         1 CLA      0.044400
    124 H62        85.3339   52.4431   34.9276 dc         1 CLA      0.015600
    125 H61        84.0367   53.6322   34.5181 dc         1 CLA      0.015600
    126 H52        83.5475   50.6608   35.1906 dc         1 CLA      0.033200
    127 H51        83.1781   51.6677   33.7709 dc         1 CLA      0.033200
    128 H43        81.1985   50.4240   36.8281 dc         1 CLA      0.037000
    129 H42        79.9172   51.0368   35.7735 dc         1 CLA      0.037000
    130 H41        81.0478   49.8545   35.0883 dc         1 CLA      0.037000
    131 H3A        79.2577   58.3050   35.3399 dc         1 CLA      0.041100
    132 H2A        78.3312   55.4720   35.0942 dc         1 CLA      0.083100
    133 H2         81.3396   53.8680   35.9202 da         1 CLA      0.180900
    134 H18        84.0816   59.3456   44.3590 dc         1 CLA     -0.003900
    135 H13        81.3131   54.9886   41.1318 dc         1 CLA      0.019700
    136 H12        79.6061   53.0174   33.7767 dc         1 CLA      0.120400
    137 H11        81.1992   53.0159   32.8932 dc         1 CLA      0.120400
    138 C1         67.8484   60.2523   48.8275 Z1         2 LUT      0.509236
    139 C2         66.7128   60.0519   49.6902 Z2         2 LUT     -0.434695
    140 C3         66.0733   61.3090   50.0954 Z3         2 LUT      0.437453
    141 O3         66.6838   61.9377   51.2665 S1         2 LUT     -0.547129
    142 C4         65.8930   62.3219   48.9867 Z4         2 LUT     -0.468603
    143 C5         66.5395   62.0128   47.6767 Z5         2 LUT      0.279246
    144 C6         67.5255   61.1007   47.5815 Z6         2 LUT     -0.305473
    145 C7         67.9829   60.6589   46.2196 Z7         2 LUT      0.069402
    146 C8         69.1588   61.1154   45.6764 Z8         2 LUT     -0.191631
    147 C9         69.5857   61.1015   44.2798 Z9         2 LUT      0.196698
    148 C10        70.7616   61.7115   43.9378 Y1         2 LUT     -0.208611
    149 C11        71.4796   61.8199   42.6773 Y2         2 LUT      0.030784
    150 C12        72.6861   62.4368   42.4919 Y3         2 LUT     -0.220316
    151 C13        73.4670   62.4227   41.2229 Y4         2 LUT      0.215937
    152 C14        74.7325   63.0610   41.3981 Y5         2 LUT     -0.185793
    153 C15        75.7520   63.2590   40.5038 Y6         2 LUT     -0.057835
    154 C16        68.4150   58.8874   48.4458 Y7         2 LUT     -0.405615
    155 C17        68.9933   60.9598   49.6614 Y7         2 LUT     -0.405615
    156 C18        66.1027   62.9503   46.6114 Y9         2 LUT     -0.369639
    157 C19        68.8936   60.1883   43.2468 W1         2 LUT     -0.333362
    158 C20        72.9730   61.5515   39.9708 W2         2 LUT     -0.323439
    159 C21        86.7619   64.0729   34.5787 Z1         2 LUT      0.406104
    160 C22        87.5874   63.6416   33.3838 Z2         2 LUT     -0.404965
    161 C23        87.7631   64.7258   32.3045 Z3         2 LUT      0.391255
    162 O23        88.4812   64.0871   31.2372 S1         2 LUT     -0.528210
    163 C24        86.5200   65.4768   31.9909 W6         2 LUT     -0.258361
    164 C25        85.4597   65.5383   32.7763 Z5         2 LUT      0.133546
    165 C26        85.4245   64.7373   34.0959 W8         2 LUT     -0.147008
    166 C27        84.7781   65.4099   35.2571 Z7         2 LUT      0.023843
    167 C28        83.6826   65.0387   35.9611 Z8         2 LUT     -0.216987
    168 C29        83.0918   65.5973   37.1443 Z9         2 LUT      0.206524
    169 C30        82.0244   64.9767   37.6856 Y1         2 LUT     -0.215556
    170 C31        81.2242   65.3379   38.8366 Y2         2 LUT      0.025142
    171 C32        80.0556   64.7195   39.0602 Y3         2 LUT     -0.212209
    172 C33        79.1244   64.8027   40.1535 Y4         2 LUT      0.240937
    173 C34        78.0348   63.9851   39.9864 Y5         2 LUT     -0.218862
    174 C35        76.9387   63.9116   40.8467 Y6         2 LUT     -0.023547
    175 C36        87.5980   64.8886   35.5945 Y7         2 LUT     -0.393485
    176 C37        86.3710   62.7541   35.3702 Y7         2 LUT     -0.393485
    177 C38        84.2837   66.4376   32.4224 Y9         2 LUT     -0.387526
    178 C39        83.7166   66.8162   37.7445 W1         2 LUT     -0.322618
    179 C40        79.1120   65.9077   41.1361 W2         2 LUT     -0.358472
    180 H403       78.7775   66.7600   40.5136 R7         2 LUT      0.097720
    181 H402       78.4235   66.0014   42.0132 R7         2 LUT      0.097720
    182 H401       80.0442   66.2798   41.4659 R7         2 LUT      0.097720
    183 H393       84.7885   66.7415   37.6401 R4         2 LUT      0.082505
    184 H392       83.3437   67.6620   37.1944 R4         2 LUT      0.082505
    185 H391       83.5254   66.8683   38.7874 R4         2 LUT      0.082505
    186 H383       84.6291   67.2825   31.7543 R1         2 LUT      0.104030
    187 H382       83.4022   65.8444   31.9253 R1         2 LUT      0.104030
    188 H381       83.9041   66.8810   33.2922 R1         2 LUT      0.104030
    189 H373       85.7997   62.0907   34.8007 T4         2 LUT      0.089537
    190 H372       87.3074   62.2057   35.8125 T4         2 LUT      0.089537
    191 H371       85.7787   63.0440   36.1817 T4         2 LUT      0.089537
    192 H363       88.6588   64.6118   35.5903 T4         2 LUT      0.089537
    193 H362       87.5795   65.9614   35.3290 T4         2 LUT      0.089537
    194 H361       87.1300   64.7713   36.5747 T4         2 LUT      0.089537
    195 H222       88.5549   63.0471   33.5095 U2         2 LUT      0.127376
    196 H221       86.8783   62.9357   32.9081 U2         2 LUT      0.127376
    197 H203       72.4731   60.5887   40.3001 R7         2 LUT      0.087068
    198 H202       72.2775   61.9995   39.3915 R7         2 LUT      0.087068
    199 H201       73.6409   61.3074   39.1550 R7         2 LUT      0.087068
    200 H193       67.9742   60.5736   43.0711 R4         2 LUT      0.089716
    201 H192       69.3271   60.1381   42.2751 R4         2 LUT      0.089716
    202 H191       68.7124   59.1404   43.6165 R4         2 LUT      0.089716
    203 H183       65.5396   62.4637   45.8318 R1         2 LUT      0.094572
    204 H182       65.4615   63.7249   46.9849 R1         2 LUT      0.094572
    205 H181       66.9617   63.4666   46.1847 R1         2 LUT      0.094572
    206 H173       69.1446   60.4120   50.5529 T4         2 LUT      0.093752
    207 H172       69.9324   60.9725   49.1532 T4         2 LUT      0.093752
    208 H171       68.8011   62.0153   49.9601 T4         2 LUT      0.093752
    209 H163       68.5842   58.4310   49.4007 T4         2 LUT      0.093752
    210 H162       67.6367   58.3379   47.8743 T4         2 LUT      0.093752
    211 H161       69.4003   58.8982   47.9317 T4         2 LUT      0.093752
    212 HO3        66.4500   61.4320   52.0771 Q1         2 LUT      0.300121
    213 H8         69.7788   61.6028   46.3462 U7         2 LUT      0.080784
    214 H7         67.2069   60.2896   45.5418 U6         2 LUT      0.042190
    215 H42        64.8543   62.5587   48.7924 U5         2 LUT      0.145166
    216 H41        66.2047   63.3414   49.3527 U5         2 LUT      0.145166
    217 H35        77.1104   64.2343   41.8846 T3         2 LUT      0.077919
    218 H34        77.8941   63.4621   39.1047 T2         2 LUT      0.073626
    219 H32        79.7101   64.0571   38.1999 T1         2 LUT      0.092510
    220 H31        81.5273   66.0750   39.5862 U9         2 LUT      0.070048
    221 H30        81.7175   64.0011   37.1775 U8         2 LUT      0.085442
    222 H3         65.0458   61.1914   50.3975 U3         2 LUT     -0.031596
    223 H28        83.2710   64.1454   35.4197 U7         2 LUT      0.084728
    224 H27        85.2132   66.3718   35.5668 U6         2 LUT      0.087291
    225 H26        84.7670   63.9584   33.8332 Q6         2 LUT      0.075325
    226 H24        86.6921   66.0421   31.0692 Q5         2 LUT      0.094482
    227 H23        88.5314   65.3554   32.8008 U3         2 LUT     -0.024869
    228 H22        65.9222   59.6325   49.1150 U2         2 LUT      0.127376
    229 H21        66.9971   59.4208   50.6059 U2         2 LUT      0.127376
    230 H15        75.6409   62.9879   39.4505 T3         2 LUT      0.093200
    231 H14        75.0294   63.4515   42.4326 T2         2 LUT      0.068865
    232 H12        73.2253   62.9126   43.2242 T1         2 LUT      0.095507
    233 H11        70.9777   61.2782   41.8767 U9         2 LUT      0.068930
    234 H10        71.2400   62.3169   44.7096 U8         2 LUT      0.083911
    235 H1         87.9650   63.5580   30.6205 Q1         2 LUT      0.297311
@<TRIPOS>BOND
    1     6     1 1
    2     7     2 1
    3     8     3 1
    4     9     4 1
    5    11     4 1
    6    12     6 1
    7    13     9 1
    8    16     9 1
    9    25     5 1
   10    25    16 1
   11    26    10 1
   12    26    17 1
   13    27    18 1
   14    28    14 1
   15    28    19 1
   16    29    12 1
   17    30    13 1
   18    31    24 1
   19    32     1 1
   20    32    25 1
   21    33    21 1
   22    33    26 1
   23    34    22 1
   24    34    27 1
   25    35    23 1
   26    35    28 1
   27    36    12 1
   28    36    24 1
   29    37    13 1
   30    37    15 1
   31    38    31 1
   32    39    20 1
   33    39    32 1
   34    40     2 1
   35    40    33 1
   36    41     3 1
   37    41    34 1
   38    42     4 1
   39    42    35 1
   40    43    38 1
   41    44     5 1
   42    44    17 1
   43    44    39 1
   44    45    10 1
   45    45    18 1
   46    45    40 1
   47    46    19 1
   48    46    41 1
   49    47    14 1
   50    47    16 1
   51    47    42 1
   52    48    38 1
   53    49    48 1
   54    50    49 1
   55    51    50 1
   56    52    51 1
   57    53    51 1
   58    54    53 1
   59    55    54 1
   60    56    55 1
   61    57    56 1
   62    58    56 1
   63    59    58 1
   64    60    59 1
   65    61    60 1
   66    62    61 1
   67    63    61 1
   68    64    27 1
   69    64    46 1
   70    65     5 1
   71    65    10 1
   72    65    64 1
   73    65    14 1
   74    66    23 1
   75    67    23 1
   76    68    23 1
   77    69    22 1
   78    70    22 1
   79    71    22 1
   80    72    21 1
   81    73    21 1
   82    74    21 1
   83    75    20 1
   84    76    20 1
   85    77    20 1
   86    78    15 1
   87    79    15 1
   88    80    15 1
   89    81     8 1
   90    82     8 1
   91    83     8 1
   92    84     7 1
   93    85     7 1
   94    86     6 1
   95    87     6 1
   96    88     3 1
   97    89     3 1
   98    90     1 1
   99    91     1 1
  100    92    63 1
  101    93    63 1
  102    94    63 1
  103    95    62 1
  104    96    62 1
  105    97    62 1
  106    98    60 1
  107    99    60 1
  108   100    59 1
  109   101    59 1
  110   102    58 1
  111   103    58 1
  112   104    57 1
  113   105    57 1
  114   106    57 1
  115   107    55 1
  116   108    55 1
  117   109    54 1
  118   110    54 1
  119   111    53 1
  120   112    53 1
  121   113    19 1
  122   114    18 1
  123   115    17 1
  124   116     9 1
  125   117     2 1
  126   118    52 1
  127   119    52 1
  128   120    52 1
  129   121    51 1
  130   122    50 1
  131   123    50 1
  132   124    49 1
  133   125    49 1
  134   126    48 1
  135   127    48 1
  136   128    43 1
  137   129    43 1
  138   130    43 1
  139   131    39 1
  140   132    32 1
  141   133    31 1
  142   134    61 1
  143   135    56 1
  144   136    24 1
  145   137    24 1
  146   139   138 1
  147   140   139 1
  148   141   140 1
  149   142   140 1
  150   143   142 1
  151   144   138 1
  152   144   143 1
  153   145   144 1
  154   146   145 1
  155   147   146 1
  156   148   147 1
  157   149   148 1
  158   150   149 1
  159   151   150 1
  160   152   151 1
  161   153   152 1
  162   154   138 1
  163   155   138 1
  164   156   143 1
  165   157   147 1
  166   158   151 1
  167   160   159 1
  168   161   160 1
  169   162   161 1
  170   163   161 1
  171   164   163 1
  172   165   159 1
  173   165   164 1
  174   166   165 1
  175   167   166 1
  176   168   167 1
  177   169   168 1
  178   170   169 1
  179   171   170 1
  180   172   171 1
  181   173   172 1
  182   174   153 1
  183   174   173 1
  184   175   159 1
  185   176   159 1
  186   177   164 1
  187   178   168 1
  188   179   172 1
  189   180   179 1
  190   181   179 1
  191   182   179 1
  192   183   178 1
  193   184   178 1
  194   185   178 1
  195   186   177 1
  196   187   177 1
  197   188   177 1
  198   189   176 1
  199   190   176 1
  200   191   176 1
  201   192   175 1
  202   193   175 1
  203   194   175 1
  204   195   160 1
  205   196   160 1
  206   197   158 1
  207   198   158 1
  208   199   158 1
  209   200   157 1
  210   201   157 1
  211   202   157 1
  212   203   156 1
  213   204   156 1
  214   205   156 1
  215   206   155 1
  216   207   155 1
  217   208   155 1
  218   209   154 1
  219   210   154 1
  220   211   154 1
  221   212   141 1
  222   213   146 1
  223   214   145 1
  224   215   142 1
  225   216   142 1
  226   217   174 1
  227   218   173 1
  228   219   171 1
  229   220   170 1
  230   221   169 1
  231   222   140 1
  232   223   167 1
  233   224   166 1
  234   225   165 1
  235   226   163 1
  236   227   161 1
  237   228   139 1
  238   229   139 1
  239   230   153 1
  240   231   152 1
  241   232   150 1
  242   233   149 1
  243   234   148 1
  244   235   162 1
  245   65    153 1
  246   65    174 1
@<TRIPOS>SUBSTRUCTURE
      1 CLA               1 ****               0 ****  **** 
      2 LUT             138 ****               0 ****  **** 
