@<TRIPOS>MOLECULE
Cpptraj generated mol2 file.
  235   246     2     0     0
SMALL
USER_CHARGES


@<TRIPOS>ATOM
      1 CAA        78.1992   57.6712   34.5352 a2         1 CLA     -0.055900
      2 CAB        77.2179   61.6474   43.6201 c8         1 CLA     -0.148500
      3 CAC        70.8323   56.8257   42.8465 a2         1 CLA     -0.012600
      4 CAD        73.9967   55.0916   35.3487 ck         1 CLA      0.398800
      5 NA         76.8813   58.0683   37.9623 ns         1 CLA     -0.225500
      6 CBA        79.6133   57.6693   33.8407 a2         1 CLA     -0.135000
      7 CBB        78.2800   62.0510   44.3957 c0         1 CLA     -0.395200
      8 CBC        70.8886   55.3609   42.7457 a3         1 CLA     -0.037700
      9 CBD        75.5127   55.7499   35.1624 a1         1 CLA     -0.053900
     10 NB         76.5635   59.5827   40.5619 nm         1 CLA     -0.295700
     11 OBD        73.3854   54.3353   34.6179 o2         1 CLA     -0.494600
     12 CGA        80.1692   56.2867   33.5011 c4         1 CLA      0.827000
     13 CGD        76.4805   54.6317   35.0659 c4         1 CLA      0.655300
     14 ND         74.1730   56.9511   38.4028 nm         1 CLA     -0.291600
     15 CED        76.9554   52.2794   35.6145 a3         1 CLA      0.005400
     16 CHA        75.7543   56.6716   36.4186 cs         1 CLA     -0.123800
     17 CHB        78.4761   59.6965   39.0545 aa         1 CLA     -0.291900
     18 CHC        75.0370   59.7716   42.4801 aa         1 CLA     -0.090400
     19 CHD        72.2222   56.6343   39.8517 aa         1 CLA     -0.052000
     20 CMA        80.4122   58.1279   37.3679 a3         1 CLA     -0.230700
     21 CMB        79.5715   61.5929   41.2285 a3         1 CLA     -0.180800
     22 CMC        72.7529   58.9428   44.4314 a3         1 CLA     -0.134000
     23 CMD        71.2643   54.9769   37.2582 a3         1 CLA     -0.141100
     24 C1         81.7118   54.5000   34.3350 a2         1 CLA      0.023000
     25 C1A        76.8671   57.3799   36.7788 ac         1 CLA     -0.015100
     26 C1B        77.7589   60.0333   40.2079 cr         1 CLA      0.054700
     27 C1C        74.0617   58.8448   42.2055 cn         1 CLA     -0.005600
     28 C1D        72.9259   56.4027   38.6179 ap         1 CLA     -0.047300
     29 O1A        79.7515   55.5793   32.6100 o2         1 CLA     -0.610800
     30 O1D        77.3761   54.6375   34.2878 o2         1 CLA     -0.558200
     31 C2         80.9749   53.7534   35.4095 c8         1 CLA     -0.325100
     32 C2A        78.2193   57.3971   36.0717 a1         1 CLA      0.098600
     33 C2B        78.2145   60.8712   41.2587 cb         1 CLA      0.088500
     34 C2C        72.9393   58.4197   43.0123 cb         1 CLA      0.053700
     35 C2D        72.4934   55.6662   37.4656 cb         1 CLA      0.058900
     36 O2A        81.2328   55.8892   34.3803 o1         1 CLA     -0.437200
     37 O2D        76.2360   53.5585   35.8842 o1         1 CLA     -0.357600
     38 C3         81.4848   53.0958   36.4239 c5         1 CLA      0.031200
     39 C3A        78.9708   58.5022   36.9177 a1         1 CLA      0.166800
     40 C3B        77.2544   60.8970   42.2647 cb         1 CLA      0.035000
     41 C3C        72.1332   57.4701   42.2832 cb         1 CLA     -0.089900
     42 C3D        73.6010   55.6516   36.5924 cb         1 CLA     -0.035900
     43 C4         81.6219   51.5911   36.5217 a3         1 CLA     -0.053300
     44 C4A        78.0472   58.7639   38.0775 ac         1 CLA      0.001800
     45 C4B        76.1962   60.1366   41.7440 cn         1 CLA     -0.020900
     46 C4C        72.7335   57.3138   40.9901 cr         1 CLA     -0.044400
     47 C4D        74.5571   56.5606   37.1743 c6         1 CLA     -0.046000
     48 C5         81.8011   53.9343   37.6949 a2         1 CLA     -0.070400
     49 C6         83.0161   54.8254   37.6557 a2         1 CLA      0.043900
     50 C7         83.1057   55.6721   38.9936 a2         1 CLA     -0.150000
     51 C8         84.0912   56.8847   38.9059 a1         1 CLA      0.064200
     52 C9         85.4687   56.3906   38.3393 a3         1 CLA     -0.259300
     53 C10        84.3074   57.6496   40.2146 a2         1 CLA     -0.071900
     54 C11        83.1102   58.3206   40.7292 a2         1 CLA      0.014500
     55 C12        83.4579   59.4299   41.8059 a2         1 CLA     -0.112100
     56 C13        84.2330   58.8924   42.9983 a1         1 CLA      0.089200
     57 C14        83.8367   57.6314   43.5709 a3         1 CLA     -0.239100
     58 C15        84.6101   59.9109   44.1260 a2         1 CLA     -0.102200
     59 C16        83.4603   60.4162   45.0316 a2         1 CLA      0.023900
     60 C17        83.9202   61.3068   46.1817 a2         1 CLA     -0.105700
     61 C18        82.8212   61.7830   47.1170 a1         1 CLA      0.206800
     62 C19        82.3096   60.8783   48.3548 a3         1 CLA     -0.280100
     63 C20        83.2806   63.1561   47.7752 a3         1 CLA     -0.280100
     64 NC         73.9314   58.1368   40.9747 nx         1 CLA     -0.309200
     65 MG         75.2985   58.2827   39.3715 mg         1 CLA      0.895000
     66 HMD3       70.9779   54.4543   38.1873 dc         1 CLA      0.064300
     67 HMD2       70.4846   55.6994   37.0482 dc         1 CLA      0.064300
     68 HMD1       71.4593   54.1754   36.5750 dc         1 CLA      0.064300
     69 HMC3       71.7288   59.0594   44.8567 dc         1 CLA      0.052100
     70 HMC2       73.2419   58.2379   45.1117 dc         1 CLA      0.052100
     71 HMC1       73.2660   59.9060   44.6269 dc         1 CLA      0.052100
     72 HMB3       80.3544   61.0382   41.7111 dc         1 CLA      0.063600
     73 HMB2       80.0591   61.9117   40.3101 dc         1 CLA      0.063600
     74 HMB1       79.3132   62.4441   41.7611 dc         1 CLA      0.063600
     75 HMA3       80.7607   58.9808   37.9418 dc         1 CLA      0.058300
     76 HMA2       80.4308   57.2450   37.9943 dc         1 CLA      0.058300
     77 HMA1       81.1075   58.1052   36.4786 dc         1 CLA      0.058300
     78 HED3       76.4137   51.3834   36.0824 dc         1 CLA      0.079300
     79 HED2       76.9456   52.1362   34.5430 dc         1 CLA      0.079300
     80 HED1       78.0092   52.4185   36.0263 dc         1 CLA      0.079300
     81 HBC3       70.5675   55.1782   41.7313 dc         1 CLA      0.016300
     82 HBC2       71.9345   55.0647   42.9617 dc         1 CLA      0.016300
     83 HBC1       70.2359   54.8601   43.4570 dc         1 CLA      0.016300
     84 HBB2       78.3101   62.6251   45.3076 da         1 CLA      0.183000
     85 HBB1       79.2468   61.6966   44.1021 da         1 CLA      0.183000
     86 HBA2       79.4703   58.2018   32.8371 dc         1 CLA      0.029400
     87 HBA1       80.3772   58.2004   34.4162 dc         1 CLA      0.029400
     88 HAC2       70.8329   56.9987   43.9181 dc         1 CLA      0.029300
     89 HAC1       69.9105   57.1865   42.3470 dc         1 CLA      0.029300
     90 HAA2       77.6333   56.9105   34.0166 dc         1 CLA      0.028700
     91 HAA1       77.7820   58.6779   34.3214 dc         1 CLA      0.028700
     92 H203       84.1250   63.0347   48.3917 dc         1 CLA      0.065600
     93 H202       83.4209   63.9205   47.0132 dc         1 CLA      0.065600
     94 H201       82.3308   63.4690   48.2800 dc         1 CLA      0.065600
     95 H193       81.3709   61.2985   48.7531 dc         1 CLA      0.065600
     96 H192       82.1315   59.8933   47.9846 dc         1 CLA      0.065600
     97 H191       83.0863   60.9033   49.0648 dc         1 CLA      0.065600
     98 H172       84.6065   60.7424   46.8610 dc         1 CLA      0.027600
     99 H171       84.3805   62.1534   45.7416 dc         1 CLA      0.027600
    100 H162       82.7923   60.9557   44.3125 dc         1 CLA      0.002900
    101 H161       83.0029   59.5250   45.4147 dc         1 CLA      0.002900
    102 H152       85.3582   59.4926   44.7751 dc         1 CLA      0.029100
    103 H151       84.9736   60.7647   43.6932 dc         1 CLA      0.029100
    104 H143       82.8317   57.5578   43.9734 dc         1 CLA      0.063600
    105 H142       83.9833   56.8488   42.8052 dc         1 CLA      0.063600
    106 H141       84.5707   57.3764   44.3584 dc         1 CLA      0.063600
    107 H122       83.9203   60.3103   41.4216 dc         1 CLA      0.032500
    108 H121       82.4227   59.7134   42.2428 dc         1 CLA      0.032500
    109 H112       82.6535   58.8542   39.8966 dc         1 CLA      0.006600
    110 H111       82.4225   57.4764   40.8982 dc         1 CLA      0.006600
    111 H102       84.5904   56.8595   40.9472 dc         1 CLA      0.024100
    112 H101       85.1657   58.4101   40.0463 dc         1 CLA      0.024100
    113 HHD        71.1833   56.2719   40.0117 da         1 CLA      0.174300
    114 HHC        74.9860   60.3015   43.4609 da         1 CLA      0.136800
    115 HHB        79.5023   60.0802   39.1289 da         1 CLA      0.138300
    116 HBD        75.4913   56.3179   34.2064 dc         1 CLA      0.107700
    117 HAB        76.3218   61.9866   43.9313 da         1 CLA      0.155200
    118 H93        85.3685   56.1698   37.2726 dc         1 CLA      0.069500
    119 H92        86.1779   57.2277   38.5205 dc         1 CLA      0.069500
    120 H91        85.7169   55.5192   38.9659 dc         1 CLA      0.069500
    121 H8         83.6825   57.5280   38.0747 dc         1 CLA      0.029300
    122 H72        82.1452   56.0707   39.1941 dc         1 CLA      0.044400
    123 H71        83.3350   55.0778   39.8105 dc         1 CLA      0.044400
    124 H62        83.9004   54.1851   37.5392 dc         1 CLA      0.015600
    125 H61        82.9932   55.5279   36.8563 dc         1 CLA      0.015600
    126 H52        80.8565   54.4746   37.8201 dc         1 CLA      0.033200
    127 H51        81.8662   53.3285   38.5319 dc         1 CLA      0.033200
    128 H43        80.9648   51.2480   37.3070 dc         1 CLA      0.037000
    129 H42        81.2040   51.2035   35.5825 dc         1 CLA      0.037000
    130 H41        82.7104   51.3079   36.5532 dc         1 CLA      0.037000
    131 H3A        79.0081   59.4367   36.3563 dc         1 CLA      0.041100
    132 H2A        78.6897   56.4432   36.3308 dc         1 CLA      0.083100
    133 H2         79.8914   53.8221   35.3196 da         1 CLA      0.180900
    134 H18        81.8627   62.0039   46.5799 dc         1 CLA     -0.003900
    135 H13        85.2024   58.5287   42.5295 dc         1 CLA      0.019700
    136 H12        81.7268   54.1791   33.3099 dc         1 CLA      0.120400
    137 H11        82.8089   54.5198   34.5369 dc         1 CLA      0.120400
    138 C1         67.8477   61.0484   49.9769 Z1         2 LUT      0.509236
    139 C2         66.5451   60.8801   50.7807 Z2         2 LUT     -0.434695
    140 C3         65.8666   62.2294   51.1968 Z3         2 LUT      0.437453
    141 O3         66.4155   62.5914   52.4805 S1         2 LUT     -0.547129
    142 C4         66.0890   63.3617   50.1651 Z4         2 LUT     -0.468603
    143 C5         66.7247   63.0412   48.8754 Z5         2 LUT      0.279246
    144 C6         67.6359   62.0391   48.7835 Z6         2 LUT     -0.305473
    145 C7         67.9806   61.5294   47.4098 Z7         2 LUT      0.069402
    146 C8         69.1399   61.7813   46.6653 Z8         2 LUT     -0.191631
    147 C9         69.7412   61.1581   45.5164 Z9         2 LUT      0.196698
    148 C10        70.8463   61.8626   45.0330 Y1         2 LUT     -0.208611
    149 C11        71.5139   61.7630   43.8105 Y2         2 LUT      0.030784
    150 C12        72.4849   62.7267   43.4775 Y3         2 LUT     -0.220316
    151 C13        73.2355   62.8303   42.2774 Y4         2 LUT      0.215937
    152 C14        74.3752   63.5738   42.2704 Y5         2 LUT     -0.185793
    153 C15        75.3111   63.7705   41.2432 Y6         2 LUT     -0.057835
    154 C16        68.2711   59.6763   49.4792 Y7         2 LUT     -0.405615
    155 C17        68.8901   61.6831   50.8912 Y7         2 LUT     -0.405615
    156 C18        66.0406   63.6776   47.6805 Y9         2 LUT     -0.369639
    157 C19        69.1279   59.9131   44.8701 W1         2 LUT     -0.333362
    158 C20        72.5895   62.2085   41.0322 W2         2 LUT     -0.323439
    159 C21        86.5975   64.9158   35.1929 Z1         2 LUT      0.406104
    160 C22        87.6637   64.5014   34.1226 Z2         2 LUT     -0.404965
    161 C23        87.8632   65.5893   32.9693 Z3         2 LUT      0.391255
    162 O23        88.7912   65.0755   31.9660 S1         2 LUT     -0.528210
    163 C24        86.6274   66.2104   32.6376 W6         2 LUT     -0.258361
    164 C25        85.4625   66.1450   33.2726 Z5         2 LUT      0.133546
    165 C26        85.1978   65.3201   34.4929 W8         2 LUT     -0.147008
    166 C27        84.1679   66.0232   35.4495 Z7         2 LUT      0.023843
    167 C28        83.3135   65.4274   36.2947 Z8         2 LUT     -0.216987
    168 C29        82.5327   66.0766   37.3915 Z9         2 LUT      0.206524
    169 C30        81.5135   65.3493   37.9107 Y1         2 LUT     -0.215556
    170 C31        80.8069   65.6937   39.1026 Y2         2 LUT      0.025142
    171 C32        79.7193   64.9850   39.4167 Y3         2 LUT     -0.212209
    172 C33        78.7698   65.1959   40.5201 Y4         2 LUT      0.240937
    173 C34        77.5658   64.5352   40.5364 Y5         2 LUT     -0.218862
    174 C35        76.4874   64.4779   41.4875 Y6         2 LUT     -0.023547
    175 C36        87.1907   66.0411   36.0967 Y7         2 LUT     -0.393485
    176 C37        86.4432   63.6598   36.0403 Y7         2 LUT     -0.393485
    177 C38        84.3305   66.8424   32.5432 Y9         2 LUT     -0.387526
    178 C39        82.9827   67.4980   37.7314 W1         2 LUT     -0.322618
    179 C40        79.2473   66.1219   41.5957 W2         2 LUT     -0.358472
    180 H403       80.2596   66.0207   41.7817 R7         2 LUT      0.097720
    181 H402       79.1213   67.1094   41.2717 R7         2 LUT      0.097720
    182 H401       78.7014   66.0238   42.5107 R7         2 LUT      0.097720
    183 H393       83.9630   67.5258   38.1881 R4         2 LUT      0.082505
    184 H392       83.1096   68.2368   36.9409 R4         2 LUT      0.082505
    185 H391       82.3473   67.9927   38.4859 R4         2 LUT      0.082505
    186 H383       83.5824   66.0517   32.3399 R1         2 LUT      0.104030
    187 H382       83.9674   67.6059   33.1254 R1         2 LUT      0.104030
    188 H381       84.5568   67.3197   31.5992 R1         2 LUT      0.104030
    189 H373       87.4037   63.2411   36.3679 T4         2 LUT      0.089537
    190 H372       85.8082   63.8983   36.9392 T4         2 LUT      0.089537
    191 H371       85.7711   62.8631   35.5824 T4         2 LUT      0.089537
    192 H363       86.3838   66.7602   36.2185 T4         2 LUT      0.089537
    193 H362       87.4394   65.7462   37.0908 T4         2 LUT      0.089537
    194 H361       88.0810   66.3477   35.6379 T4         2 LUT      0.089537
    195 H222       88.6226   64.2068   34.5605 U2         2 LUT      0.127376
    196 H221       87.3202   63.6021   33.6051 U2         2 LUT      0.127376
    197 H203       71.6145   62.6179   40.7668 R7         2 LUT      0.087068
    198 H202       73.3252   62.3873   40.2199 R7         2 LUT      0.087068
    199 H201       72.5175   61.1264   41.1600 R7         2 LUT      0.087068
    200 H193       68.1303   59.6825   45.1064 R4         2 LUT      0.089716
    201 H192       69.1068   60.0173   43.8087 R4         2 LUT      0.089716
    202 H191       69.6147   58.9832   45.1935 R4         2 LUT      0.089716
    203 H183       65.2372   63.0809   47.1884 R1         2 LUT      0.094572
    204 H182       65.6941   64.7423   47.9158 R1         2 LUT      0.094572
    205 H181       66.8343   63.8097   46.8631 R1         2 LUT      0.094572
    206 H173       69.7605   61.9344   50.3099 T4         2 LUT      0.093752
    207 H172       68.6117   62.5806   51.4449 T4         2 LUT      0.093752
    208 H171       69.0831   60.9968   51.7133 T4         2 LUT      0.093752
    209 H163       67.5308   59.2297   48.8233 T4         2 LUT      0.093752
    210 H162       69.2457   59.5670   49.0886 T4         2 LUT      0.093752
    211 H161       68.3395   59.1723   50.3320 T4         2 LUT      0.093752
    212 HO3        65.7965   63.1165   52.9580 Q1         2 LUT      0.300121
    213 H8         69.8715   62.5225   47.0992 U7         2 LUT      0.080784
    214 H7         67.5047   60.5513   47.1948 U6         2 LUT      0.042190
    215 H42        65.0496   63.5799   49.9277 U5         2 LUT      0.145166
    216 H41        66.5806   64.1812   50.7145 U5         2 LUT      0.145166
    217 H35        76.5864   65.0268   42.3997 T3         2 LUT      0.077919
    218 H34        77.3029   63.8384   39.7972 T2         2 LUT      0.073626
    219 H32        79.3753   64.2050   38.6601 T1         2 LUT      0.092510
    220 H31        81.2454   66.5124   39.7552 U9         2 LUT      0.070048
    221 H30        81.2307   64.3391   37.5531 U8         2 LUT      0.085442
    222 H3         64.8054   61.9763   51.0112 U3         2 LUT     -0.031596
    223 H28        83.0985   64.4294   36.0763 U7         2 LUT      0.084728
    224 H27        84.3195   67.0673   35.4546 U6         2 LUT      0.087291
    225 H26        84.8559   64.4205   34.0942 Q6         2 LUT      0.075325
    226 H24        86.7170   66.8218   31.7790 Q5         2 LUT      0.094482
    227 H23        88.2580   66.3528   33.6305 U3         2 LUT     -0.024869
    228 H22        65.7514   60.4408   50.1698 U2         2 LUT      0.127376
    229 H21        66.6862   60.1722   51.6189 U2         2 LUT      0.127376
    230 H15        75.1584   63.2242   40.2683 T3         2 LUT      0.093200
    231 H14        74.4828   64.1311   43.2491 T2         2 LUT      0.068865
    232 H12        72.7311   63.2680   44.4149 T1         2 LUT      0.095507
    233 H11        71.1132   61.0982   43.0272 U9         2 LUT      0.068930
    234 H10        71.2229   62.7647   45.5290 U8         2 LUT      0.083911
    235 H1         88.2661   64.6797   31.2068 Q1         2 LUT      0.297311
@<TRIPOS>BOND
    1     6     1 1
    2     7     2 1
    3     8     3 1
    4     9     4 1
    5    11     4 1
    6    12     6 1
    7    13     9 1
    8    16     9 1
    9    25     5 1
   10    25    16 1
   11    26    10 1
   12    26    17 1
   13    27    18 1
   14    28    14 1
   15    28    19 1
   16    29    12 1
   17    30    13 1
   18    31    24 1
   19    32     1 1
   20    32    25 1
   21    33    21 1
   22    33    26 1
   23    34    22 1
   24    34    27 1
   25    35    23 1
   26    35    28 1
   27    36    12 1
   28    36    24 1
   29    37    13 1
   30    37    15 1
   31    38    31 1
   32    39    20 1
   33    39    32 1
   34    40     2 1
   35    40    33 1
   36    41     3 1
   37    41    34 1
   38    42     4 1
   39    42    35 1
   40    43    38 1
   41    44     5 1
   42    44    17 1
   43    44    39 1
   44    45    10 1
   45    45    18 1
   46    45    40 1
   47    46    19 1
   48    46    41 1
   49    47    14 1
   50    47    16 1
   51    47    42 1
   52    48    38 1
   53    49    48 1
   54    50    49 1
   55    51    50 1
   56    52    51 1
   57    53    51 1
   58    54    53 1
   59    55    54 1
   60    56    55 1
   61    57    56 1
   62    58    56 1
   63    59    58 1
   64    60    59 1
   65    61    60 1
   66    62    61 1
   67    63    61 1
   68    64    27 1
   69    64    46 1
   70    65     5 1
   71    65    10 1
   72    65    64 1
   73    65    14 1
   74    66    23 1
   75    67    23 1
   76    68    23 1
   77    69    22 1
   78    70    22 1
   79    71    22 1
   80    72    21 1
   81    73    21 1
   82    74    21 1
   83    75    20 1
   84    76    20 1
   85    77    20 1
   86    78    15 1
   87    79    15 1
   88    80    15 1
   89    81     8 1
   90    82     8 1
   91    83     8 1
   92    84     7 1
   93    85     7 1
   94    86     6 1
   95    87     6 1
   96    88     3 1
   97    89     3 1
   98    90     1 1
   99    91     1 1
  100    92    63 1
  101    93    63 1
  102    94    63 1
  103    95    62 1
  104    96    62 1
  105    97    62 1
  106    98    60 1
  107    99    60 1
  108   100    59 1
  109   101    59 1
  110   102    58 1
  111   103    58 1
  112   104    57 1
  113   105    57 1
  114   106    57 1
  115   107    55 1
  116   108    55 1
  117   109    54 1
  118   110    54 1
  119   111    53 1
  120   112    53 1
  121   113    19 1
  122   114    18 1
  123   115    17 1
  124   116     9 1
  125   117     2 1
  126   118    52 1
  127   119    52 1
  128   120    52 1
  129   121    51 1
  130   122    50 1
  131   123    50 1
  132   124    49 1
  133   125    49 1
  134   126    48 1
  135   127    48 1
  136   128    43 1
  137   129    43 1
  138   130    43 1
  139   131    39 1
  140   132    32 1
  141   133    31 1
  142   134    61 1
  143   135    56 1
  144   136    24 1
  145   137    24 1
  146   139   138 1
  147   140   139 1
  148   141   140 1
  149   142   140 1
  150   143   142 1
  151   144   138 1
  152   144   143 1
  153   145   144 1
  154   146   145 1
  155   147   146 1
  156   148   147 1
  157   149   148 1
  158   150   149 1
  159   151   150 1
  160   152   151 1
  161   153   152 1
  162   154   138 1
  163   155   138 1
  164   156   143 1
  165   157   147 1
  166   158   151 1
  167   160   159 1
  168   161   160 1
  169   162   161 1
  170   163   161 1
  171   164   163 1
  172   165   159 1
  173   165   164 1
  174   166   165 1
  175   167   166 1
  176   168   167 1
  177   169   168 1
  178   170   169 1
  179   171   170 1
  180   172   171 1
  181   173   172 1
  182   174   153 1
  183   174   173 1
  184   175   159 1
  185   176   159 1
  186   177   164 1
  187   178   168 1
  188   179   172 1
  189   180   179 1
  190   181   179 1
  191   182   179 1
  192   183   178 1
  193   184   178 1
  194   185   178 1
  195   186   177 1
  196   187   177 1
  197   188   177 1
  198   189   176 1
  199   190   176 1
  200   191   176 1
  201   192   175 1
  202   193   175 1
  203   194   175 1
  204   195   160 1
  205   196   160 1
  206   197   158 1
  207   198   158 1
  208   199   158 1
  209   200   157 1
  210   201   157 1
  211   202   157 1
  212   203   156 1
  213   204   156 1
  214   205   156 1
  215   206   155 1
  216   207   155 1
  217   208   155 1
  218   209   154 1
  219   210   154 1
  220   211   154 1
  221   212   141 1
  222   213   146 1
  223   214   145 1
  224   215   142 1
  225   216   142 1
  226   217   174 1
  227   218   173 1
  228   219   171 1
  229   220   170 1
  230   221   169 1
  231   222   140 1
  232   223   167 1
  233   224   166 1
  234   225   165 1
  235   226   163 1
  236   227   161 1
  237   228   139 1
  238   229   139 1
  239   230   153 1
  240   231   152 1
  241   232   150 1
  242   233   149 1
  243   234   148 1
  244   235   162 1
  245   65    153 1
  246   65    174 1
@<TRIPOS>SUBSTRUCTURE
      1 CLA               1 ****               0 ****  **** 
      2 LUT             138 ****               0 ****  **** 
