@<TRIPOS>MOLECULE
Cpptraj generated mol2 file.
  235   246     2     0     0
SMALL
USER_CHARGES


@<TRIPOS>ATOM
      1 CAA        78.2154   58.7465   33.5310 a2         1 CLA     -0.055900
      2 CAB        78.7579   62.3982   42.6533 c8         1 CLA     -0.148500
      3 CAC        71.6306   58.4471   42.2719 a2         1 CLA     -0.012600
      4 CAD        74.0707   56.3314   34.9836 ck         1 CLA      0.398800
      5 NA         77.3934   59.3408   37.0114 ns         1 CLA     -0.225500
      6 CBA        79.3914   58.4122   32.6349 a2         1 CLA     -0.135000
      7 CBB        78.7064   61.7901   43.8308 c0         1 CLA     -0.395200
      8 CBC        71.8579   56.9465   42.4978 a3         1 CLA     -0.037700
      9 CBD        75.5533   56.7298   34.6637 a1         1 CLA     -0.053900
     10 NB         77.2592   60.8041   39.6540 nm         1 CLA     -0.295700
     11 OBD        73.4917   55.5488   34.2435 o2         1 CLA     -0.494600
     12 CGA        79.8194   56.9751   32.4458 c4         1 CLA      0.827000
     13 CGD        76.4306   55.5693   34.7095 c4         1 CLA      0.655300
     14 ND         74.5479   58.4581   37.6504 nm         1 CLA     -0.291600
     15 CED        76.6885   53.3236   35.5030 a3         1 CLA      0.005400
     16 CHA        75.9681   57.8431   35.6901 cs         1 CLA     -0.123800
     17 CHB        79.1749   60.6586   38.0266 aa         1 CLA     -0.291900
     18 CHC        76.1324   60.8492   41.8250 aa         1 CLA     -0.090400
     19 CHD        72.6863   58.1259   39.3279 aa         1 CLA     -0.052000
     20 CMA        80.7783   58.4198   36.3119 a3         1 CLA     -0.230700
     21 CMB        80.6584   62.5276   40.1243 a3         1 CLA     -0.180800
     22 CMC        73.6014   60.6061   43.6256 a3         1 CLA     -0.134000
     23 CMD        71.4255   56.4007   36.9898 a3         1 CLA     -0.141100
     24 C1         81.1140   55.2346   33.4809 a2         1 CLA      0.023000
     25 C1A        77.1390   58.5432   35.9120 ac         1 CLA     -0.015100
     26 C1B        78.5531   61.1508   39.2535 cr         1 CLA      0.054700
     27 C1C        74.8652   60.2416   41.4578 cn         1 CLA     -0.005600
     28 C1D        73.2742   57.9132   38.0836 ap         1 CLA     -0.047300
     29 O1A        79.5216   56.2703   31.5166 o2         1 CLA     -0.610800
     30 O1D        77.4354   55.4553   34.0180 o2         1 CLA     -0.558200
     31 C2         81.6218   55.0483   34.8440 c8         1 CLA     -0.325100
     32 C2A        78.4201   58.3664   35.0542 a1         1 CLA      0.098600
     33 C2B        79.2788   61.8513   40.2685 cb         1 CLA      0.088500
     34 C2C        73.7597   60.0204   42.3028 cb         1 CLA      0.053700
     35 C2D        72.7471   57.1487   37.0261 cb         1 CLA      0.058900
     36 O2A        80.6228   56.6427   33.4820 o1         1 CLA     -0.437200
     37 O2D        76.0277   54.6109   35.5148 o1         1 CLA     -0.357600
     38 C3         82.2533   54.0007   35.3238 c5         1 CLA      0.031200
     39 C3A        79.5120   59.2402   35.8333 a1         1 CLA      0.166800
     40 C3B        78.4399   61.8957   41.3328 cb         1 CLA      0.035000
     41 C3C        72.8305   59.1619   41.6268 cb         1 CLA     -0.089900
     42 C3D        73.7976   56.9850   36.1950 cb         1 CLA     -0.035900
     43 C4         81.5080   52.8208   35.8434 a3         1 CLA     -0.053300
     44 C4A        78.6928   59.7868   37.0261 ac         1 CLA      0.001800
     45 C4B        77.2092   61.1178   41.0384 cn         1 CLA     -0.020900
     46 C4C        73.3475   58.9159   40.3259 cr         1 CLA     -0.044400
     47 C4D        74.8455   57.8571   36.5162 c6         1 CLA     -0.046000
     48 C5         83.7609   53.8827   35.2657 a2         1 CLA     -0.070400
     49 C6         84.5853   54.9306   36.0181 a2         1 CLA      0.043900
     50 C7         84.3436   54.9569   37.5177 a2         1 CLA     -0.150000
     51 C8         85.3398   55.7434   38.4794 a1         1 CLA      0.064200
     52 C9         86.8419   55.5997   38.1528 a3         1 CLA     -0.259300
     53 C10        85.0453   55.4266   39.9401 a2         1 CLA     -0.071900
     54 C11        83.5689   55.6904   40.4440 a2         1 CLA      0.014500
     55 C12        83.2177   57.1681   40.3737 a2         1 CLA     -0.112100
     56 C13        81.8667   57.5631   41.0651 a1         1 CLA      0.089200
     57 C14        81.0394   58.4979   40.1948 a3         1 CLA     -0.239100
     58 C15        82.0494   58.1529   42.5258 a2         1 CLA     -0.102200
     59 C16        82.7038   59.5396   42.6768 a2         1 CLA      0.023900
     60 C17        82.4494   60.0419   44.1173 a2         1 CLA     -0.105700
     61 C18        82.9292   61.4888   44.3987 a1         1 CLA      0.206800
     62 C19        82.3073   62.4794   43.3080 a3         1 CLA     -0.280100
     63 C20        82.5738   61.8803   45.8068 a3         1 CLA     -0.280100
     64 NC         74.5395   59.6763   40.2287 nx         1 CLA     -0.309200
     65 MG         75.8813   59.7520   38.5623 mg         1 CLA      0.895000
     66 HMD3       70.5750   56.9696   36.5127 dc         1 CLA      0.064300
     67 HMD2       71.6070   55.4605   36.5295 dc         1 CLA      0.064300
     68 HMD1       71.1555   56.2733   37.9950 dc         1 CLA      0.064300
     69 HMC3       72.5585   60.5940   43.9969 dc         1 CLA      0.052100
     70 HMC2       74.2925   60.1181   44.3203 dc         1 CLA      0.052100
     71 HMC1       73.9546   61.5726   43.6950 dc         1 CLA      0.052100
     72 HMB3       80.9361   63.1633   40.9047 dc         1 CLA      0.063600
     73 HMB2       81.3525   61.7054   40.0884 dc         1 CLA      0.063600
     74 HMB1       80.4622   63.0345   39.1982 dc         1 CLA      0.063600
     75 HMA3       80.4679   57.4871   36.7748 dc         1 CLA      0.058300
     76 HMA2       81.4444   58.2677   35.4888 dc         1 CLA      0.058300
     77 HMA1       81.3344   58.9245   37.1414 dc         1 CLA      0.058300
     78 HED3       77.5345   53.3476   36.0907 dc         1 CLA      0.079300
     79 HED2       76.0419   52.5747   35.8944 dc         1 CLA      0.079300
     80 HED1       76.9681   53.0689   34.4990 dc         1 CLA      0.079300
     81 HBC3       72.7727   56.8717   43.0792 dc         1 CLA      0.016300
     82 HBC2       71.0869   56.4721   43.1622 dc         1 CLA      0.016300
     83 HBC1       71.9392   56.3875   41.5513 dc         1 CLA      0.016300
     84 HBB2       79.0285   62.2950   44.7279 da         1 CLA      0.183000
     85 HBB1       78.5615   60.7367   43.9188 da         1 CLA      0.183000
     86 HBA2       79.1997   58.8216   31.6889 dc         1 CLA      0.029400
     87 HBA1       80.2169   58.9849   33.0505 dc         1 CLA      0.029400
     88 HAC2       71.3289   59.0012   43.1635 dc         1 CLA      0.029300
     89 HAC1       70.7596   58.3701   41.5653 dc         1 CLA      0.029300
     90 HAA2       77.3412   58.2412   33.1442 dc         1 CLA      0.028700
     91 HAA1       78.0112   59.8165   33.4204 dc         1 CLA      0.028700
     92 H203       83.0626   61.1900   46.5571 dc         1 CLA      0.065600
     93 H202       83.0232   62.8506   46.0893 dc         1 CLA      0.065600
     94 H201       81.5096   62.0195   45.8678 dc         1 CLA      0.065600
     95 H193       82.4120   63.5320   43.5887 dc         1 CLA      0.065600
     96 H192       82.8256   62.5137   42.3572 dc         1 CLA      0.065600
     97 H191       81.2564   62.2170   43.2450 dc         1 CLA      0.065600
     98 H172       81.3856   60.0542   44.2582 dc         1 CLA      0.027600
     99 H171       82.9616   59.3889   44.8019 dc         1 CLA      0.027600
    100 H162       83.7800   59.4424   42.5120 dc         1 CLA      0.002900
    101 H161       82.3145   60.2130   41.9182 dc         1 CLA      0.002900
    102 H152       81.0682   58.2929   43.0259 dc         1 CLA      0.029100
    103 H151       82.6298   57.3534   43.0374 dc         1 CLA      0.029100
    104 H143       81.5456   59.4378   40.0853 dc         1 CLA      0.063600
    105 H142       80.9153   58.1770   39.1716 dc         1 CLA      0.063600
    106 H141       80.0079   58.7289   40.6087 dc         1 CLA      0.063600
    107 H122       83.9369   57.8662   40.9138 dc         1 CLA      0.032500
    108 H121       82.9826   57.3201   39.3680 dc         1 CLA      0.032500
    109 H112       82.7415   55.2118   39.8551 dc         1 CLA      0.006600
    110 H111       83.5744   55.4420   41.5390 dc         1 CLA      0.006600
    111 H102       85.2218   54.4032   40.0957 dc         1 CLA      0.024100
    112 H101       85.6465   56.0057   40.6383 dc         1 CLA      0.024100
    113 HHD        71.7048   57.6879   39.5289 da         1 CLA      0.174300
    114 HHC        76.1439   61.1842   42.8575 da         1 CLA      0.136800
    115 HHB        80.2256   60.8383   38.0627 da         1 CLA      0.138300
    116 HBD        75.5640   57.0196   33.6415 dc         1 CLA      0.107700
    117 HAB        79.0947   63.4326   42.7029 da         1 CLA      0.155200
    118 H93        87.3085   56.1294   38.9206 dc         1 CLA      0.069500
    119 H92        86.9938   54.5343   38.2984 dc         1 CLA      0.069500
    120 H91        87.1678   55.7622   37.1634 dc         1 CLA      0.069500
    121 H8         85.1273   56.7956   38.3818 dc         1 CLA      0.029300
    122 H72        83.3740   55.2939   37.7380 dc         1 CLA      0.044400
    123 H71        84.4229   53.9376   37.8937 dc         1 CLA      0.044400
    124 H62        85.6421   54.8753   35.7743 dc         1 CLA      0.015600
    125 H61        84.3961   55.9287   35.7495 dc         1 CLA      0.015600
    126 H52        84.0298   52.8743   35.6398 dc         1 CLA      0.033200
    127 H51        84.1200   53.9488   34.2533 dc         1 CLA      0.033200
    128 H43        81.4036   52.9329   36.8930 dc         1 CLA      0.037000
    129 H42        80.5061   52.7466   35.3638 dc         1 CLA      0.037000
    130 H41        82.1313   51.9885   35.6270 dc         1 CLA      0.037000
    131 H3A        79.9501   60.0565   35.2311 dc         1 CLA      0.041100
    132 H2A        78.6733   57.3743   35.1459 dc         1 CLA      0.083100
    133 H2         81.4954   55.8350   35.5979 da         1 CLA      0.180900
    134 H18        84.0139   61.6245   44.3903 dc         1 CLA     -0.003900
    135 H13        81.3783   56.5864   41.3113 dc         1 CLA      0.019700
    136 H12        80.2911   54.5010   33.2831 dc         1 CLA      0.120400
    137 H11        81.9097   55.0182   32.7857 dc         1 CLA      0.120400
    138 C1         67.9663   61.6152   49.6175 Z1         2 LUT      0.509236
    139 C2         66.5305   61.5733   50.1915 Z2         2 LUT     -0.434695
    140 C3         65.7891   62.8883   50.5783 Z3         2 LUT      0.437453
    141 O3         66.2556   63.3745   51.8196 S1         2 LUT     -0.547129
    142 C4         66.1374   63.9540   49.6190 Z4         2 LUT     -0.468603
    143 C5         66.9772   63.6262   48.4197 Z5         2 LUT      0.279246
    144 C6         67.9033   62.5666   48.4282 Z6         2 LUT     -0.305473
    145 C7         68.4243   62.1139   47.0980 Z7         2 LUT      0.069402
    146 C8         69.2759   62.7660   46.3039 Z8         2 LUT     -0.191631
    147 C9         69.9221   62.5265   44.9721 Z9         2 LUT      0.196698
    148 C10        70.9448   63.2844   44.4818 Y1         2 LUT     -0.208611
    149 C11        71.6936   63.1494   43.2944 Y2         2 LUT      0.030784
    150 C12        72.8270   63.9163   42.9879 Y3         2 LUT     -0.220316
    151 C13        73.6638   63.7611   41.8238 Y4         2 LUT      0.215937
    152 C14        74.9205   64.3712   41.6997 Y5         2 LUT     -0.185793
    153 C15        75.9199   64.3642   40.6528 Y6         2 LUT     -0.057835
    154 C16        68.5614   60.2123   49.4567 Y7         2 LUT     -0.405615
    155 C17        68.8728   62.2620   50.7282 Y7         2 LUT     -0.405615
    156 C18        66.6186   64.4888   47.2206 Y9         2 LUT     -0.369639
    157 C19        69.3369   61.3248   44.2283 W1         2 LUT     -0.333362
    158 C20        72.9328   63.2699   40.5506 W2         2 LUT     -0.323439
    159 C21        87.4416   64.7752   34.8190 Z1         2 LUT      0.406104
    160 C22        88.2327   64.4336   33.5253 Z2         2 LUT     -0.404965
    161 C23        88.5411   65.6276   32.6847 Z3         2 LUT      0.391255
    162 O23        89.3623   65.0830   31.6035 S1         2 LUT     -0.528210
    163 C24        87.2385   66.3836   32.3725 W6         2 LUT     -0.258361
    164 C25        86.1520   66.4437   33.2159 Z5         2 LUT      0.133546
    165 C26        86.1151   65.5326   34.5155 W8         2 LUT     -0.147008
    166 C27        85.5007   66.2344   35.6940 Z7         2 LUT      0.023843
    167 C28        84.2629   65.9569   36.2606 Z8         2 LUT     -0.216987
    168 C29        83.6471   66.3834   37.5060 Z9         2 LUT      0.206524
    169 C30        82.3837   65.9852   37.8377 Y1         2 LUT     -0.215556
    170 C31        81.5292   66.2762   38.9388 Y2         2 LUT      0.025142
    171 C32        80.2933   65.6868   38.9453 Y3         2 LUT     -0.212209
    172 C33        79.3963   65.7834   40.0084 Y4         2 LUT      0.240937
    173 C34        78.1814   65.1290   39.9418 Y5         2 LUT     -0.218862
    174 C35        77.0527   65.0127   40.8825 Y6         2 LUT     -0.023547
    175 C36        88.3776   65.6075   35.7337 Y7         2 LUT     -0.393485
    176 C37        87.2582   63.4024   35.5124 Y7         2 LUT     -0.393485
    177 C38        84.8932   67.3084   32.9724 Y9         2 LUT     -0.387526
    178 C39        84.3646   67.3878   38.3607 W1         2 LUT     -0.322618
    179 C40        79.4860   67.0038   40.9124 W2         2 LUT     -0.358472
    180 H403       80.2898   67.0575   41.6429 R7         2 LUT      0.097720
    181 H402       79.5498   67.8543   40.2416 R7         2 LUT      0.097720
    182 H401       78.5680   67.1496   41.4965 R7         2 LUT      0.097720
    183 H393       85.4697   67.3538   38.3248 R4         2 LUT      0.082505
    184 H392       84.1074   68.4181   38.1460 R4         2 LUT      0.082505
    185 H391       84.2565   67.2773   39.4791 R4         2 LUT      0.082505
    186 H383       84.7704   68.1023   33.6623 R1         2 LUT      0.104030
    187 H382       84.9706   67.9175   32.0135 R1         2 LUT      0.104030
    188 H381       83.9621   66.7259   32.9964 R1         2 LUT      0.104030
    189 H373       86.6029   63.5206   36.3258 T4         2 LUT      0.089537
    190 H372       86.8479   62.6449   34.8227 T4         2 LUT      0.089537
    191 H371       88.1906   62.9478   35.8528 T4         2 LUT      0.089537
    192 H363       88.0619   65.5539   36.7873 T4         2 LUT      0.089537
    193 H362       89.3535   65.0228   35.8941 T4         2 LUT      0.089537
    194 H361       88.4859   66.6569   35.4181 T4         2 LUT      0.089537
    195 H222       89.2055   64.1958   33.8163 U2         2 LUT      0.127376
    196 H221       87.6901   63.7396   32.8955 U2         2 LUT      0.127376
    197 H203       73.3950   62.3586   40.2582 R7         2 LUT      0.087068
    198 H202       71.8842   63.2240   40.5543 R7         2 LUT      0.087068
    199 H201       73.1147   63.8942   39.6663 R7         2 LUT      0.087068
    200 H193       68.7332   61.5937   43.3821 R4         2 LUT      0.089716
    201 H192       70.2000   60.8200   43.7832 R4         2 LUT      0.089716
    202 H191       68.7437   60.6292   44.8521 R4         2 LUT      0.089716
    203 H183       66.3372   63.8898   46.3654 R1         2 LUT      0.094572
    204 H182       65.8831   65.2203   47.3224 R1         2 LUT      0.094572
    205 H181       67.4459   65.1469   46.8965 R1         2 LUT      0.094572
    206 H173       68.6051   63.3137   50.7894 T4         2 LUT      0.093752
    207 H172       68.6103   61.8377   51.6989 T4         2 LUT      0.093752
    208 H171       69.9407   62.1333   50.5203 T4         2 LUT      0.093752
    209 H163       69.5341   60.2249   48.9565 T4         2 LUT      0.093752
    210 H162       68.7878   59.8040   50.4719 T4         2 LUT      0.093752
    211 H161       67.9087   59.5182   48.9868 T4         2 LUT      0.093752
    212 HO3        65.9767   62.8192   52.5811 Q1         2 LUT      0.300121
    213 H8         69.6354   63.7505   46.6576 U7         2 LUT      0.080784
    214 H7         67.9354   61.1600   46.8208 U6         2 LUT      0.042190
    215 H42        65.2365   64.4722   49.3304 U5         2 LUT      0.145166
    216 H41        66.5231   64.8426   50.0757 U5         2 LUT      0.145166
    217 H35        77.1318   65.3733   41.8539 T3         2 LUT      0.077919
    218 H34        77.9811   64.6090   38.9406 T2         2 LUT      0.073626
    219 H32        79.9041   65.1234   38.0737 T1         2 LUT      0.092510
    220 H31        81.9939   66.8636   39.7435 U9         2 LUT      0.070048
    221 H30        81.9038   65.3574   37.1690 U8         2 LUT      0.085442
    222 H3         64.6996   62.5489   50.6322 U3         2 LUT     -0.031596
    223 H28        83.6672   65.2024   35.7966 U7         2 LUT      0.084728
    224 H27        85.9342   67.0882   36.1927 U6         2 LUT      0.087291
    225 H26        85.2892   64.8467   34.2397 Q6         2 LUT      0.075325
    226 H24        87.2059   66.9780   31.4818 Q5         2 LUT      0.094482
    227 H23        89.0048   66.4568   33.2263 U3         2 LUT     -0.024869
    228 H22        65.9235   61.0437   49.4339 U2         2 LUT      0.127376
    229 H21        66.3936   60.8650   51.0227 U2         2 LUT      0.127376
    230 H15        75.7315   63.8112   39.7237 T3         2 LUT      0.093200
    231 H14        75.1360   64.8936   42.6492 T2         2 LUT      0.068865
    232 H12        73.1267   64.4603   43.9128 T1         2 LUT      0.095507
    233 H11        71.2892   62.4150   42.5920 U9         2 LUT      0.068930
    234 H10        71.2308   64.1657   44.9989 U8         2 LUT      0.083911
    235 H1         88.8199   64.8600   30.7927 Q1         2 LUT      0.297311
@<TRIPOS>BOND
    1     6     1 1
    2     7     2 1
    3     8     3 1
    4     9     4 1
    5    11     4 1
    6    12     6 1
    7    13     9 1
    8    16     9 1
    9    25     5 1
   10    25    16 1
   11    26    10 1
   12    26    17 1
   13    27    18 1
   14    28    14 1
   15    28    19 1
   16    29    12 1
   17    30    13 1
   18    31    24 1
   19    32     1 1
   20    32    25 1
   21    33    21 1
   22    33    26 1
   23    34    22 1
   24    34    27 1
   25    35    23 1
   26    35    28 1
   27    36    12 1
   28    36    24 1
   29    37    13 1
   30    37    15 1
   31    38    31 1
   32    39    20 1
   33    39    32 1
   34    40     2 1
   35    40    33 1
   36    41     3 1
   37    41    34 1
   38    42     4 1
   39    42    35 1
   40    43    38 1
   41    44     5 1
   42    44    17 1
   43    44    39 1
   44    45    10 1
   45    45    18 1
   46    45    40 1
   47    46    19 1
   48    46    41 1
   49    47    14 1
   50    47    16 1
   51    47    42 1
   52    48    38 1
   53    49    48 1
   54    50    49 1
   55    51    50 1
   56    52    51 1
   57    53    51 1
   58    54    53 1
   59    55    54 1
   60    56    55 1
   61    57    56 1
   62    58    56 1
   63    59    58 1
   64    60    59 1
   65    61    60 1
   66    62    61 1
   67    63    61 1
   68    64    27 1
   69    64    46 1
   70    65     5 1
   71    65    10 1
   72    65    64 1
   73    65    14 1
   74    66    23 1
   75    67    23 1
   76    68    23 1
   77    69    22 1
   78    70    22 1
   79    71    22 1
   80    72    21 1
   81    73    21 1
   82    74    21 1
   83    75    20 1
   84    76    20 1
   85    77    20 1
   86    78    15 1
   87    79    15 1
   88    80    15 1
   89    81     8 1
   90    82     8 1
   91    83     8 1
   92    84     7 1
   93    85     7 1
   94    86     6 1
   95    87     6 1
   96    88     3 1
   97    89     3 1
   98    90     1 1
   99    91     1 1
  100    92    63 1
  101    93    63 1
  102    94    63 1
  103    95    62 1
  104    96    62 1
  105    97    62 1
  106    98    60 1
  107    99    60 1
  108   100    59 1
  109   101    59 1
  110   102    58 1
  111   103    58 1
  112   104    57 1
  113   105    57 1
  114   106    57 1
  115   107    55 1
  116   108    55 1
  117   109    54 1
  118   110    54 1
  119   111    53 1
  120   112    53 1
  121   113    19 1
  122   114    18 1
  123   115    17 1
  124   116     9 1
  125   117     2 1
  126   118    52 1
  127   119    52 1
  128   120    52 1
  129   121    51 1
  130   122    50 1
  131   123    50 1
  132   124    49 1
  133   125    49 1
  134   126    48 1
  135   127    48 1
  136   128    43 1
  137   129    43 1
  138   130    43 1
  139   131    39 1
  140   132    32 1
  141   133    31 1
  142   134    61 1
  143   135    56 1
  144   136    24 1
  145   137    24 1
  146   139   138 1
  147   140   139 1
  148   141   140 1
  149   142   140 1
  150   143   142 1
  151   144   138 1
  152   144   143 1
  153   145   144 1
  154   146   145 1
  155   147   146 1
  156   148   147 1
  157   149   148 1
  158   150   149 1
  159   151   150 1
  160   152   151 1
  161   153   152 1
  162   154   138 1
  163   155   138 1
  164   156   143 1
  165   157   147 1
  166   158   151 1
  167   160   159 1
  168   161   160 1
  169   162   161 1
  170   163   161 1
  171   164   163 1
  172   165   159 1
  173   165   164 1
  174   166   165 1
  175   167   166 1
  176   168   167 1
  177   169   168 1
  178   170   169 1
  179   171   170 1
  180   172   171 1
  181   173   172 1
  182   174   153 1
  183   174   173 1
  184   175   159 1
  185   176   159 1
  186   177   164 1
  187   178   168 1
  188   179   172 1
  189   180   179 1
  190   181   179 1
  191   182   179 1
  192   183   178 1
  193   184   178 1
  194   185   178 1
  195   186   177 1
  196   187   177 1
  197   188   177 1
  198   189   176 1
  199   190   176 1
  200   191   176 1
  201   192   175 1
  202   193   175 1
  203   194   175 1
  204   195   160 1
  205   196   160 1
  206   197   158 1
  207   198   158 1
  208   199   158 1
  209   200   157 1
  210   201   157 1
  211   202   157 1
  212   203   156 1
  213   204   156 1
  214   205   156 1
  215   206   155 1
  216   207   155 1
  217   208   155 1
  218   209   154 1
  219   210   154 1
  220   211   154 1
  221   212   141 1
  222   213   146 1
  223   214   145 1
  224   215   142 1
  225   216   142 1
  226   217   174 1
  227   218   173 1
  228   219   171 1
  229   220   170 1
  230   221   169 1
  231   222   140 1
  232   223   167 1
  233   224   166 1
  234   225   165 1
  235   226   163 1
  236   227   161 1
  237   228   139 1
  238   229   139 1
  239   230   153 1
  240   231   152 1
  241   232   150 1
  242   233   149 1
  243   234   148 1
  244   235   162 1
  245   65    153 1
  246   65    174 1
@<TRIPOS>SUBSTRUCTURE
      1 CLA               1 ****               0 ****  **** 
      2 LUT             138 ****               0 ****  **** 
