@<TRIPOS>MOLECULE
Cpptraj generated mol2 file.
  235   246     2     0     0
SMALL
USER_CHARGES


@<TRIPOS>ATOM
      1 CAA        79.6701   57.3801   34.9968 a2         1 CLA     -0.055900
      2 CAB        79.7923   61.9378   43.5538 c8         1 CLA     -0.148500
      3 CAC        72.8092   57.7899   43.5424 a2         1 CLA     -0.012600
      4 CAD        75.3120   54.9752   36.2904 ck         1 CLA      0.398800
      5 NA         78.6299   57.9682   38.3104 ns         1 CLA     -0.225500
      6 CBA        80.7840   57.0404   34.0255 a2         1 CLA     -0.135000
      7 CBB        80.9778   62.2857   44.1513 c0         1 CLA     -0.395200
      8 CBC        72.6909   56.3358   43.3129 a3         1 CLA     -0.037700
      9 CBD        76.7548   55.3263   36.0476 a1         1 CLA     -0.053900
     10 NB         78.5011   59.8429   40.7358 nm         1 CLA     -0.295700
     11 OBD        74.6176   54.2469   35.6077 o2         1 CLA     -0.494600
     12 CGA        81.0591   55.5765   33.6868 c4         1 CLA      0.827000
     13 CGD        77.6041   54.0239   36.0984 c4         1 CLA      0.655300
     14 ND         75.7682   57.1973   38.9847 nm         1 CLA     -0.291600
     15 CED        78.1530   52.0360   37.3709 a3         1 CLA      0.005400
     16 CHA        77.2556   56.3477   37.1143 cs         1 CLA     -0.123800
     17 CHB        80.4300   59.4042   39.1998 aa         1 CLA     -0.291900
     18 CHC        77.1896   60.4043   42.7009 aa         1 CLA     -0.090400
     19 CHD        73.8861   57.4802   40.5400 aa         1 CLA     -0.052000
     20 CMA        81.8644   56.9616   37.8138 a3         1 CLA     -0.230700
     21 CMB        81.9004   61.3393   41.3294 a3         1 CLA     -0.180800
     22 CMC        74.9068   59.8627   44.9459 a3         1 CLA     -0.134000
     23 CMD        72.4373   55.4422   38.3791 a3         1 CLA     -0.141100
     24 C1         82.1388   53.6504   34.4059 a2         1 CLA      0.023000
     25 C1A        78.4977   57.0480   37.3890 ac         1 CLA     -0.015100
     26 C1B        79.8403   60.0165   40.3344 cr         1 CLA      0.054700
     27 C1C        75.9602   59.6351   42.6041 cn         1 CLA     -0.005600
     28 C1D        74.4860   56.9451   39.3053 ap         1 CLA     -0.047300
     29 O1A        80.6576   54.9279   32.7792 o2         1 CLA     -0.610800
     30 O1D        78.3654   53.6050   35.2245 o2         1 CLA     -0.558200
     31 C2         82.7482   53.0436   35.6860 c8         1 CLA     -0.325100
     32 C2A        79.7154   56.9384   36.4836 a1         1 CLA      0.098600
     33 C2B        80.5139   60.8848   41.3532 cb         1 CLA      0.088500
     34 C2C        74.9293   59.3102   43.5352 cb         1 CLA      0.053700
     35 C2D        73.9188   55.9887   38.3648 cb         1 CLA      0.058900
     36 O2A        81.8632   55.1020   34.6965 o1         1 CLA     -0.437200
     37 O2D        77.3397   53.2820   37.2282 o1         1 CLA     -0.357600
     38 C3         83.9316   52.4713   35.7406 c5         1 CLA      0.031200
     39 C3A        80.7143   57.7881   37.2992 a1         1 CLA      0.166800
     40 C3B        79.6029   61.1717   42.3280 cb         1 CLA      0.035000
     41 C3C        74.0003   58.4326   42.8615 cb         1 CLA     -0.089900
     42 C3D        74.9890   55.7185   37.4727 cb         1 CLA     -0.035900
     43 C4         84.1796   51.0359   35.1311 a3         1 CLA     -0.053300
     44 C4A        79.8914   58.4709   38.3318 ac         1 CLA      0.001800
     45 C4B        78.3428   60.5153   41.8715 cn         1 CLA     -0.020900
     46 C4C        74.5087   58.2737   41.4994 cr         1 CLA     -0.044400
     47 C4D        76.0777   56.4973   37.8748 c6         1 CLA     -0.046000
     48 C5         85.2284   53.3219   36.1830 a2         1 CLA     -0.070400
     49 C6         85.7984   53.0314   37.5516 a2         1 CLA      0.043900
     50 C7         86.9539   53.9098   37.8060 a2         1 CLA     -0.150000
     51 C8         86.8215   55.0782   38.9531 a1         1 CLA      0.064200
     52 C9         85.7144   56.1518   38.4717 a3         1 CLA     -0.259300
     53 C10        88.1624   55.7416   39.1936 a2         1 CLA     -0.071900
     54 C11        88.3884   56.7630   40.3582 a2         1 CLA      0.014500
     55 C12        88.1933   56.1649   41.7497 a2         1 CLA     -0.112100
     56 C13        88.1309   57.2193   42.8869 a1         1 CLA      0.089200
     57 C14        89.3132   58.3429   42.9410 a3         1 CLA     -0.239100
     58 C15        87.6764   56.5984   44.3498 a2         1 CLA     -0.102200
     59 C16        87.3195   57.5889   45.4491 a2         1 CLA      0.023900
     60 C17        86.2614   58.6734   45.1143 a2         1 CLA     -0.105700
     61 C18        84.7792   58.3323   45.1391 a1         1 CLA      0.206800
     62 C19        84.2697   58.0749   46.5727 a3         1 CLA     -0.280100
     63 C20        83.9959   59.4990   44.4748 a3         1 CLA     -0.280100
     64 NC         75.7324   58.8985   41.4323 nx         1 CLA     -0.309200
     65 MG         77.1212   58.6215   39.8129 mg         1 CLA      0.895000
     66 HMD3       71.8961   56.1129   37.6967 dc         1 CLA      0.064300
     67 HMD2       72.3273   54.4005   38.1151 dc         1 CLA      0.064300
     68 HMD1       71.9768   55.6158   39.2749 dc         1 CLA      0.064300
     69 HMC3       75.5271   60.7969   44.9775 dc         1 CLA      0.052100
     70 HMC2       73.8862   60.1812   45.2300 dc         1 CLA      0.052100
     71 HMC1       75.3862   59.1389   45.5862 dc         1 CLA      0.052100
     72 HMB3       81.9072   62.3213   41.6745 dc         1 CLA      0.063600
     73 HMB2       82.5537   60.7961   42.0318 dc         1 CLA      0.063600
     74 HMB1       82.3277   61.3191   40.3332 dc         1 CLA      0.063600
     75 HMA3       82.4883   57.5190   38.4801 dc         1 CLA      0.058300
     76 HMA2       81.2904   56.1496   38.3122 dc         1 CLA      0.058300
     77 HMA1       82.3717   56.6479   36.9911 dc         1 CLA      0.058300
     78 HED3       79.1798   52.2322   37.1604 dc         1 CLA      0.079300
     79 HED2       78.1733   51.7078   38.4051 dc         1 CLA      0.079300
     80 HED1       77.6589   51.1669   36.9279 dc         1 CLA      0.079300
     81 HBC3       73.6549   55.8225   43.4834 dc         1 CLA      0.016300
     82 HBC2       71.9737   55.9089   44.0622 dc         1 CLA      0.016300
     83 HBC1       72.4047   56.0985   42.2575 dc         1 CLA      0.016300
     84 HBB2       80.9403   62.8137   45.1294 da         1 CLA      0.183000
     85 HBB1       81.9731   62.1029   43.8268 da         1 CLA      0.183000
     86 HBA2       80.5813   57.5566   33.0699 dc         1 CLA      0.029400
     87 HBA1       81.7655   57.4178   34.4103 dc         1 CLA      0.029400
     88 HAC2       72.8833   57.9226   44.6837 dc         1 CLA      0.029300
     89 HAC1       71.8770   58.1830   43.2089 dc         1 CLA      0.029300
     90 HAA2       78.7959   56.9507   34.4986 dc         1 CLA      0.028700
     91 HAA1       79.4938   58.4773   34.9227 dc         1 CLA      0.028700
     92 H203       83.8935   60.3573   45.1301 dc         1 CLA      0.065600
     93 H202       84.4797   59.9140   43.5894 dc         1 CLA      0.065600
     94 H201       82.9679   59.2482   44.2190 dc         1 CLA      0.065600
     95 H193       84.5449   58.9465   47.1747 dc         1 CLA      0.065600
     96 H192       83.1774   57.9429   46.6396 dc         1 CLA      0.065600
     97 H191       84.7757   57.2360   47.0560 dc         1 CLA      0.065600
     98 H172       86.4524   59.3583   45.9309 dc         1 CLA      0.027600
     99 H171       86.5141   59.1144   44.1569 dc         1 CLA      0.027600
    100 H162       87.0203   57.0193   46.3333 dc         1 CLA      0.002900
    101 H161       88.2385   58.0992   45.5944 dc         1 CLA      0.002900
    102 H152       86.7749   56.0346   44.1229 dc         1 CLA      0.029100
    103 H151       88.5356   56.0736   44.7792 dc         1 CLA      0.029100
    104 H143       90.3134   57.8645   42.9151 dc         1 CLA      0.063600
    105 H142       89.2299   58.9805   42.0868 dc         1 CLA      0.063600
    106 H141       89.2221   58.9870   43.8142 dc         1 CLA      0.063600
    107 H122       87.1948   55.8188   41.8188 dc         1 CLA      0.032500
    108 H121       88.8867   55.3680   41.9115 dc         1 CLA      0.032500
    109 H112       89.3850   56.9247   40.3316 dc         1 CLA      0.006600
    110 H111       87.7938   57.6803   40.3160 dc         1 CLA      0.006600
    111 H102       89.0286   55.0736   39.3138 dc         1 CLA      0.024100
    112 H101       88.4596   56.0683   38.2266 dc         1 CLA      0.024100
    113 HHD        72.9030   57.1829   40.7166 da         1 CLA      0.174300
    114 HHC        77.4386   60.8144   43.7472 da         1 CLA      0.136800
    115 HHB        81.5054   59.6195   39.0980 da         1 CLA      0.138300
    116 HBD        76.8872   55.7584   35.1052 dc         1 CLA      0.107700
    117 HAB        78.8824   62.2701   43.9866 da         1 CLA      0.155200
    118 H93        85.9544   56.5050   37.4702 dc         1 CLA      0.069500
    119 H92        84.7770   55.6208   38.3901 dc         1 CLA      0.069500
    120 H91        85.5545   57.0105   39.1896 dc         1 CLA      0.069500
    121 H8         86.4211   54.5145   39.8276 dc         1 CLA      0.029300
    122 H72        87.7483   53.1919   38.0907 dc         1 CLA      0.044400
    123 H71        87.5122   54.3474   36.9485 dc         1 CLA      0.044400
    124 H62        85.1269   53.1493   38.3484 dc         1 CLA      0.015600
    125 H61        86.1529   52.0197   37.5783 dc         1 CLA      0.015600
    126 H52        85.9600   53.0255   35.4106 dc         1 CLA      0.033200
    127 H51        85.0551   54.4119   36.1175 dc         1 CLA      0.033200
    128 H43        84.5970   50.3325   35.8933 dc         1 CLA      0.037000
    129 H42        83.2920   50.6157   34.8134 dc         1 CLA      0.037000
    130 H41        84.9171   51.1514   34.3083 dc         1 CLA      0.037000
    131 H3A        81.1002   58.6241   36.6836 dc         1 CLA      0.041100
    132 H2A        80.0661   55.8812   36.5993 dc         1 CLA      0.083100
    133 H2         82.2212   52.8815   36.6231 da         1 CLA      0.180900
    134 H18        84.5442   57.4708   44.6020 dc         1 CLA     -0.003900
    135 H13        87.2316   57.7573   42.4848 dc         1 CLA      0.019700
    136 H12        81.1219   53.2159   34.2497 dc         1 CLA      0.120400
    137 H11        82.8212   53.5087   33.6050 dc         1 CLA      0.120400
    138 C1         68.9377   61.4136   50.2092 Z1         2 LUT      0.509236
    139 C2         67.3816   61.2938   50.5943 Z2         2 LUT     -0.434695
    140 C3         66.7053   62.5834   50.8920 Z3         2 LUT      0.437453
    141 O3         66.6453   62.9052   52.2596 S1         2 LUT     -0.547129
    142 C4         67.3792   63.8121   50.1534 Z4         2 LUT     -0.468603
    143 C5         68.1849   63.4819   48.9658 Z5         2 LUT      0.279246
    144 C6         68.9949   62.4219   49.0351 Z6         2 LUT     -0.305473
    145 C7         69.4745   61.9825   47.7227 Z7         2 LUT      0.069402
    146 C8         70.5925   62.4043   47.0747 Z8         2 LUT     -0.191631
    147 C9         71.1500   61.9254   45.8292 Z9         2 LUT      0.196698
    148 C10        72.2498   62.5159   45.3309 Y1         2 LUT     -0.208611
    149 C11        73.0007   62.3719   44.1240 Y2         2 LUT      0.030784
    150 C12        74.0693   63.1247   43.7416 Y3         2 LUT     -0.220316
    151 C13        74.8890   63.1193   42.5644 Y4         2 LUT      0.215937
    152 C14        76.0619   63.8276   42.5638 Y5         2 LUT     -0.185793
    153 C15        77.1210   63.7693   41.5602 Y6         2 LUT     -0.057835
    154 C16        69.4491   60.0237   49.7995 Y7         2 LUT     -0.405615
    155 C17        69.7408   61.6907   51.4550 Y7         2 LUT     -0.405615
    156 C18        67.8074   64.1805   47.6928 Y9         2 LUT     -0.369639
    157 C19        70.3989   60.8881   44.9939 W1         2 LUT     -0.333362
    158 C20        74.2218   62.6332   41.3035 W2         2 LUT     -0.323439
    159 C21        88.7268   64.8839   35.8493 Z1         2 LUT      0.406104
    160 C22        89.5722   64.0095   34.9427 Z2         2 LUT     -0.404965
    161 C23        89.9249   64.5174   33.5770 Z3         2 LUT      0.391255
    162 O23        90.2048   63.3210   32.7681 S1         2 LUT     -0.528210
    163 C24        88.8016   65.4845   33.0426 W6         2 LUT     -0.258361
    164 C25        87.6805   65.8175   33.6550 Z5         2 LUT      0.133546
    165 C26        87.3648   65.2990   35.0564 W8         2 LUT     -0.147008
    166 C27        86.4310   66.1356   35.9025 Z7         2 LUT      0.023843
    167 C28        85.3752   65.6059   36.5551 Z8         2 LUT     -0.216987
    168 C29        84.6167   66.1446   37.6694 Z9         2 LUT      0.206524
    169 C30        83.6247   65.3440   38.2257 Y1         2 LUT     -0.215556
    170 C31        82.6343   65.5943   39.2491 Y2         2 LUT      0.025142
    171 C32        81.6034   64.7887   39.7100 Y3         2 LUT     -0.212209
    172 C33        80.6458   65.0280   40.7760 Y4         2 LUT      0.240937
    173 C34        79.4414   64.3552   40.6916 Y5         2 LUT     -0.218862
    174 C35        78.3598   64.4058   41.6615 Y6         2 LUT     -0.023547
    175 C36        89.5368   66.1709   36.2395 Y7         2 LUT     -0.393485
    176 C37        88.4190   64.1699   37.1373 Y7         2 LUT     -0.393485
    177 C38        86.6065   66.7078   33.0360 Y9         2 LUT     -0.387526
    178 C39        84.7919   67.5109   38.1585 W1         2 LUT     -0.322618
    179 C40        81.1201   65.7249   42.0368 W2         2 LUT     -0.358472
    180 H403       80.9313   65.0292   42.8658 R7         2 LUT      0.097720
    181 H402       82.1545   65.9661   41.9476 R7         2 LUT      0.097720
    182 H401       80.6343   66.6515   42.1711 R7         2 LUT      0.097720
    183 H393       85.4654   67.4935   39.0354 R4         2 LUT      0.082505
    184 H392       85.2437   68.1957   37.4433 R4         2 LUT      0.082505
    185 H391       83.8582   67.8704   38.5230 R4         2 LUT      0.082505
    186 H383       87.0623   67.7175   32.9218 R1         2 LUT      0.104030
    187 H382       86.2394   66.3358   32.0776 R1         2 LUT      0.104030
    188 H381       85.6886   66.8216   33.6430 R1         2 LUT      0.104030
    189 H373       89.3210   63.8603   37.6077 T4         2 LUT      0.089537
    190 H372       87.8254   64.8149   37.8091 T4         2 LUT      0.089537
    191 H371       87.9058   63.2656   36.8895 T4         2 LUT      0.089537
    192 H363       89.9422   66.8358   35.3655 T4         2 LUT      0.089537
    193 H362       89.0541   66.9353   36.9064 T4         2 LUT      0.089537
    194 H361       90.3828   65.8855   36.7740 T4         2 LUT      0.089537
    195 H222       90.4695   63.6644   35.3900 U2         2 LUT      0.127376
    196 H221       89.0944   63.0571   34.6886 U2         2 LUT      0.127376
    197 H203       73.1989   62.9683   41.1117 R7         2 LUT      0.087068
    198 H202       74.7807   62.8083   40.4311 R7         2 LUT      0.087068
    199 H201       74.1529   61.4953   41.4091 R7         2 LUT      0.087068
    200 H193       69.8905   60.1314   45.6260 R4         2 LUT      0.089716
    201 H192       69.6281   61.4370   44.3639 R4         2 LUT      0.089716
    202 H191       71.0385   60.3752   44.2695 R4         2 LUT      0.089716
    203 H183       68.4573   65.1234   47.5393 R1         2 LUT      0.094572
    204 H182       67.8350   63.5937   46.7868 R1         2 LUT      0.094572
    205 H181       66.8797   64.6370   47.7022 R1         2 LUT      0.094572
    206 H173       69.5579   60.8556   52.0736 T4         2 LUT      0.093752
    207 H172       70.7637   61.7171   51.1358 T4         2 LUT      0.093752
    208 H171       69.4672   62.6037   51.9618 T4         2 LUT      0.093752
    209 H163       70.5602   59.9212   49.8686 T4         2 LUT      0.093752
    210 H162       69.0329   59.2807   50.4440 T4         2 LUT      0.093752
    211 H161       69.0954   59.6383   48.8415 T4         2 LUT      0.093752
    212 HO3        66.1802   62.2952   52.8939 Q1         2 LUT      0.300121
    213 H8         71.2162   63.1544   47.5811 U7         2 LUT      0.080784
    214 H7         68.9415   61.2417   47.1125 U6         2 LUT      0.042190
    215 H42        66.6296   64.5614   49.8434 U5         2 LUT      0.145166
    216 H41        68.0961   64.3662   50.8963 U5         2 LUT      0.145166
    217 H35        78.4789   65.1382   42.5557 T3         2 LUT      0.077919
    218 H34        79.3060   63.6506   39.7582 T2         2 LUT      0.073626
    219 H32        81.4144   63.9081   39.1262 T1         2 LUT      0.092510
    220 H31        82.7301   66.5515   39.7373 U9         2 LUT      0.070048
    221 H30        83.4100   64.4038   37.7496 U8         2 LUT      0.085442
    222 H3         65.7138   62.4425   50.3456 U3         2 LUT     -0.031596
    223 H28        85.1257   64.5806   36.3125 U7         2 LUT      0.084728
    224 H27        86.9486   67.0304   36.2304 U6         2 LUT      0.087291
    225 H26        86.8858   64.2701   34.8247 Q6         2 LUT      0.075325
    226 H24        88.9755   65.9766   32.1410 Q5         2 LUT      0.094482
    227 H23        90.8360   65.1156   33.6084 U3         2 LUT     -0.024869
    228 H22        66.8140   60.8952   49.7494 U2         2 LUT      0.127376
    229 H21        67.2223   60.5712   51.4532 U2         2 LUT      0.127376
    230 H15        76.9058   63.0818   40.7301 T3         2 LUT      0.093200
    231 H14        76.3621   64.3790   43.4314 T2         2 LUT      0.068865
    232 H12        74.3959   63.8214   44.4808 T1         2 LUT      0.095507
    233 H11        72.7417   61.6115   43.3694 U9         2 LUT      0.068930
    234 H10        72.6398   63.2595   46.0075 U8         2 LUT      0.083911
    235 H1         90.4330   63.5076   31.8540 Q1         2 LUT      0.297311
@<TRIPOS>BOND
    1     6     1 1
    2     7     2 1
    3     8     3 1
    4     9     4 1
    5    11     4 1
    6    12     6 1
    7    13     9 1
    8    16     9 1
    9    25     5 1
   10    25    16 1
   11    26    10 1
   12    26    17 1
   13    27    18 1
   14    28    14 1
   15    28    19 1
   16    29    12 1
   17    30    13 1
   18    31    24 1
   19    32     1 1
   20    32    25 1
   21    33    21 1
   22    33    26 1
   23    34    22 1
   24    34    27 1
   25    35    23 1
   26    35    28 1
   27    36    12 1
   28    36    24 1
   29    37    13 1
   30    37    15 1
   31    38    31 1
   32    39    20 1
   33    39    32 1
   34    40     2 1
   35    40    33 1
   36    41     3 1
   37    41    34 1
   38    42     4 1
   39    42    35 1
   40    43    38 1
   41    44     5 1
   42    44    17 1
   43    44    39 1
   44    45    10 1
   45    45    18 1
   46    45    40 1
   47    46    19 1
   48    46    41 1
   49    47    14 1
   50    47    16 1
   51    47    42 1
   52    48    38 1
   53    49    48 1
   54    50    49 1
   55    51    50 1
   56    52    51 1
   57    53    51 1
   58    54    53 1
   59    55    54 1
   60    56    55 1
   61    57    56 1
   62    58    56 1
   63    59    58 1
   64    60    59 1
   65    61    60 1
   66    62    61 1
   67    63    61 1
   68    64    27 1
   69    64    46 1
   70    65     5 1
   71    65    10 1
   72    65    64 1
   73    65    14 1
   74    66    23 1
   75    67    23 1
   76    68    23 1
   77    69    22 1
   78    70    22 1
   79    71    22 1
   80    72    21 1
   81    73    21 1
   82    74    21 1
   83    75    20 1
   84    76    20 1
   85    77    20 1
   86    78    15 1
   87    79    15 1
   88    80    15 1
   89    81     8 1
   90    82     8 1
   91    83     8 1
   92    84     7 1
   93    85     7 1
   94    86     6 1
   95    87     6 1
   96    88     3 1
   97    89     3 1
   98    90     1 1
   99    91     1 1
  100    92    63 1
  101    93    63 1
  102    94    63 1
  103    95    62 1
  104    96    62 1
  105    97    62 1
  106    98    60 1
  107    99    60 1
  108   100    59 1
  109   101    59 1
  110   102    58 1
  111   103    58 1
  112   104    57 1
  113   105    57 1
  114   106    57 1
  115   107    55 1
  116   108    55 1
  117   109    54 1
  118   110    54 1
  119   111    53 1
  120   112    53 1
  121   113    19 1
  122   114    18 1
  123   115    17 1
  124   116     9 1
  125   117     2 1
  126   118    52 1
  127   119    52 1
  128   120    52 1
  129   121    51 1
  130   122    50 1
  131   123    50 1
  132   124    49 1
  133   125    49 1
  134   126    48 1
  135   127    48 1
  136   128    43 1
  137   129    43 1
  138   130    43 1
  139   131    39 1
  140   132    32 1
  141   133    31 1
  142   134    61 1
  143   135    56 1
  144   136    24 1
  145   137    24 1
  146   139   138 1
  147   140   139 1
  148   141   140 1
  149   142   140 1
  150   143   142 1
  151   144   138 1
  152   144   143 1
  153   145   144 1
  154   146   145 1
  155   147   146 1
  156   148   147 1
  157   149   148 1
  158   150   149 1
  159   151   150 1
  160   152   151 1
  161   153   152 1
  162   154   138 1
  163   155   138 1
  164   156   143 1
  165   157   147 1
  166   158   151 1
  167   160   159 1
  168   161   160 1
  169   162   161 1
  170   163   161 1
  171   164   163 1
  172   165   159 1
  173   165   164 1
  174   166   165 1
  175   167   166 1
  176   168   167 1
  177   169   168 1
  178   170   169 1
  179   171   170 1
  180   172   171 1
  181   173   172 1
  182   174   153 1
  183   174   173 1
  184   175   159 1
  185   176   159 1
  186   177   164 1
  187   178   168 1
  188   179   172 1
  189   180   179 1
  190   181   179 1
  191   182   179 1
  192   183   178 1
  193   184   178 1
  194   185   178 1
  195   186   177 1
  196   187   177 1
  197   188   177 1
  198   189   176 1
  199   190   176 1
  200   191   176 1
  201   192   175 1
  202   193   175 1
  203   194   175 1
  204   195   160 1
  205   196   160 1
  206   197   158 1
  207   198   158 1
  208   199   158 1
  209   200   157 1
  210   201   157 1
  211   202   157 1
  212   203   156 1
  213   204   156 1
  214   205   156 1
  215   206   155 1
  216   207   155 1
  217   208   155 1
  218   209   154 1
  219   210   154 1
  220   211   154 1
  221   212   141 1
  222   213   146 1
  223   214   145 1
  224   215   142 1
  225   216   142 1
  226   217   174 1
  227   218   173 1
  228   219   171 1
  229   220   170 1
  230   221   169 1
  231   222   140 1
  232   223   167 1
  233   224   166 1
  234   225   165 1
  235   226   163 1
  236   227   161 1
  237   228   139 1
  238   229   139 1
  239   230   153 1
  240   231   152 1
  241   232   150 1
  242   233   149 1
  243   234   148 1
  244   235   162 1
  245   65    153 1
  246   65    174 1
@<TRIPOS>SUBSTRUCTURE
      1 CLA               1 ****               0 ****  **** 
      2 LUT             138 ****               0 ****  **** 
