@<TRIPOS>MOLECULE
Cpptraj generated mol2 file.
  235   246     2     0     0
SMALL
USER_CHARGES


@<TRIPOS>ATOM
      1 CAA        77.4508   57.7015   34.8287 a2         1 CLA     -0.055900
      2 CAB        77.9905   62.1330   43.3032 c8         1 CLA     -0.148500
      3 CAC        70.9279   58.0604   43.3287 a2         1 CLA     -0.012600
      4 CAD        73.2325   55.2426   36.3026 ck         1 CLA      0.398800
      5 NA         76.5365   58.3960   38.1115 ns         1 CLA     -0.225500
      6 CBA        78.6243   57.6443   33.8912 a2         1 CLA     -0.135000
      7 CBB        79.1805   62.2629   43.9334 c0         1 CLA     -0.395200
      8 CBC        71.0156   56.5948   43.8018 a3         1 CLA     -0.037700
      9 CBD        74.7671   55.7065   35.9956 a1         1 CLA     -0.053900
     10 NB         76.6452   60.0154   40.5752 nm         1 CLA     -0.295700
     11 OBD        72.5106   54.5527   35.6193 o2         1 CLA     -0.494600
     12 CGA        79.1829   56.3324   33.4469 c4         1 CLA      0.827000
     13 CGD        75.7045   54.4416   36.0199 c4         1 CLA      0.655300
     14 ND         73.7388   57.5193   38.9964 nm         1 CLA     -0.291600
     15 CED        75.8968   52.1682   36.8100 a3         1 CLA      0.005400
     16 CHA        75.1678   56.7594   37.0122 cs         1 CLA     -0.123800
     17 CHB        78.4091   59.8337   38.8676 aa         1 CLA     -0.291900
     18 CHC        75.4883   60.3102   42.7174 aa         1 CLA     -0.090400
     19 CHD        71.9921   57.4788   40.6456 aa         1 CLA     -0.052000
     20 CMA        79.9648   57.4781   37.6680 a3         1 CLA     -0.230700
     21 CMB        79.9675   61.9058   40.6970 a3         1 CLA     -0.180800
     22 CMC        73.4239   59.6834   45.0603 a3         1 CLA     -0.134000
     23 CMD        70.4828   55.5542   38.5332 a3         1 CLA     -0.141100
     24 C1         79.9662   54.1989   34.2124 a2         1 CLA      0.023000
     25 C1A        76.3923   57.4716   37.1377 ac         1 CLA     -0.015100
     26 C1B        77.8914   60.3236   40.0845 cr         1 CLA      0.054700
     27 C1C        74.3373   59.4725   42.5417 cn         1 CLA     -0.005600
     28 C1D        72.4706   57.1420   39.3803 ap         1 CLA     -0.047300
     29 O1A        79.1851   55.8823   32.3343 o2         1 CLA     -0.610800
     30 O1D        76.7278   54.3164   35.3459 o2         1 CLA     -0.558200
     31 C2         80.1926   53.3399   35.3425 c8         1 CLA     -0.325100
     32 C2A        77.6435   57.3443   36.3085 a1         1 CLA      0.098600
     33 C2B        78.5811   61.1709   40.9905 cb         1 CLA      0.088500
     34 C2C        73.2483   59.3008   43.5801 cb         1 CLA      0.053700
     35 C2D        71.8129   56.2563   38.4603 cb         1 CLA      0.058900
     36 O2A        79.6919   55.6060   34.5266 o1         1 CLA     -0.437200
     37 O2D        75.2658   53.4644   36.9012 o1         1 CLA     -0.357600
     38 C3         81.3077   53.2680   36.0626 c5         1 CLA      0.031200
     39 C3A        78.7423   58.2198   37.0306 a1         1 CLA      0.166800
     40 C3B        77.7614   61.2399   42.1289 cb         1 CLA      0.035000
     41 C3C        72.2711   58.5986   42.8865 cb         1 CLA     -0.089900
     42 C3D        72.8835   55.9968   37.5507 cb         1 CLA     -0.035900
     43 C4         82.4057   52.3575   35.5919 a3         1 CLA     -0.053300
     44 C4A        77.8181   58.8769   38.0933 ac         1 CLA      0.001800
     45 C4B        76.5398   60.5520   41.8745 cn         1 CLA     -0.020900
     46 C4C        72.7407   58.3369   41.5660 cr         1 CLA     -0.044400
     47 C4D        73.9870   56.8536   37.8629 c6         1 CLA     -0.046000
     48 C5         81.4355   53.9524   37.3927 a2         1 CLA     -0.070400
     49 C6         82.5889   54.9615   37.4736 a2         1 CLA      0.043900
     50 C7         82.7846   55.4886   38.9322 a2         1 CLA     -0.150000
     51 C8         83.9901   56.5308   39.1472 a1         1 CLA      0.064200
     52 C9         85.2329   55.6816   39.0929 a3         1 CLA     -0.259300
     53 C10        83.9399   57.2971   40.5472 a2         1 CLA     -0.071900
     54 C11        82.5324   57.8947   40.9360 a2         1 CLA      0.014500
     55 C12        82.6535   58.8943   42.0927 a2         1 CLA     -0.112100
     56 C13        83.3566   58.3624   43.3271 a1         1 CLA      0.089200
     57 C14        82.2658   57.3711   43.9820 a3         1 CLA     -0.239100
     58 C15        83.5580   59.5375   44.3907 a2         1 CLA     -0.102200
     59 C16        82.4796   60.3657   45.0785 a2         1 CLA      0.023900
     60 C17        83.1377   61.0864   46.2510 a2         1 CLA     -0.105700
     61 C18        82.2492   62.0808   47.0558 a1         1 CLA      0.206800
     62 C19        81.0211   61.4049   47.6063 a3         1 CLA     -0.280100
     63 C20        83.0076   62.6813   48.3133 a3         1 CLA     -0.280100
     64 NC         74.0038   58.8888   41.4223 nx         1 CLA     -0.309200
     65 MG         75.1031   58.9073   39.7394 mg         1 CLA      0.895000
     66 HMD3       69.6157   56.2327   38.2846 dc         1 CLA      0.064300
     67 HMD2       70.4987   54.8290   37.8103 dc         1 CLA      0.064300
     68 HMD1       70.3682   55.0398   39.5164 dc         1 CLA      0.064300
     69 HMC3       74.4675   59.4063   45.3867 dc         1 CLA      0.052100
     70 HMC2       73.1129   60.7123   45.3132 dc         1 CLA      0.052100
     71 HMC1       72.7925   59.0358   45.5919 dc         1 CLA      0.052100
     72 HMB3       80.0007   62.8704   41.1114 dc         1 CLA      0.063600
     73 HMB2       80.8277   61.4045   41.1241 dc         1 CLA      0.063600
     74 HMB1       80.1469   61.9518   39.6052 dc         1 CLA      0.063600
     75 HMA3       80.4977   56.9915   36.8419 dc         1 CLA      0.058300
     76 HMA2       80.6958   58.1221   38.2264 dc         1 CLA      0.058300
     77 HMA1       79.6651   56.8092   38.3743 dc         1 CLA      0.058300
     78 HED3       76.9602   52.3813   37.2019 dc         1 CLA      0.079300
     79 HED2       75.4802   51.4097   37.5224 dc         1 CLA      0.079300
     80 HED1       75.8299   51.8081   35.7538 dc         1 CLA      0.079300
     81 HBC3       70.1117   56.4125   44.2649 dc         1 CLA      0.016300
     82 HBC2       71.1292   56.0670   42.8700 dc         1 CLA      0.016300
     83 HBC1       71.8317   56.5565   44.5214 dc         1 CLA      0.016300
     84 HBB2       79.3882   63.0057   44.7002 da         1 CLA      0.183000
     85 HBB1       80.0758   61.6105   43.7008 da         1 CLA      0.183000
     86 HBA2       78.3269   58.1084   32.9874 dc         1 CLA      0.029400
     87 HBA1       79.4060   58.2299   34.2884 dc         1 CLA      0.029400
     88 HAC2       70.6752   58.5658   44.2967 dc         1 CLA      0.029300
     89 HAC1       70.1833   58.2576   42.6194 dc         1 CLA      0.029300
     90 HAA2       76.6887   57.0274   34.4693 dc         1 CLA      0.028700
     91 HAA1       76.9785   58.6636   34.7929 dc         1 CLA      0.028700
     92 H203       82.2878   63.2430   48.9294 dc         1 CLA      0.065600
     93 H202       83.4806   61.8881   48.9409 dc         1 CLA      0.065600
     94 H201       83.7494   63.2967   47.8083 dc         1 CLA      0.065600
     95 H193       80.4064   62.0359   48.3129 dc         1 CLA      0.065600
     96 H192       80.3065   61.0927   46.8393 dc         1 CLA      0.065600
     97 H191       81.2981   60.5388   48.2236 dc         1 CLA      0.065600
     98 H172       83.3705   60.2524   46.8867 dc         1 CLA      0.027600
     99 H171       84.0931   61.5788   45.8365 dc         1 CLA      0.027600
    100 H162       81.9441   61.0457   44.3967 dc         1 CLA      0.002900
    101 H161       81.7715   59.7021   45.4921 dc         1 CLA      0.002900
    102 H152       84.1322   59.0754   45.1962 dc         1 CLA      0.029100
    103 H151       84.1825   60.2878   43.8753 dc         1 CLA      0.029100
    104 H143       81.2410   57.8482   43.9894 dc         1 CLA      0.063600
    105 H142       82.1166   56.5020   43.4266 dc         1 CLA      0.063600
    106 H141       82.5559   57.0636   44.9818 dc         1 CLA      0.063600
    107 H122       83.1956   59.8222   41.7958 dc         1 CLA      0.032500
    108 H121       81.6351   59.3227   42.3469 dc         1 CLA      0.032500
    109 H112       82.1439   58.4078   40.0646 dc         1 CLA      0.006600
    110 H111       81.9483   57.0325   41.2518 dc         1 CLA      0.006600
    111 H102       84.1765   56.4745   41.1996 dc         1 CLA      0.024100
    112 H101       84.7759   57.9758   40.6368 dc         1 CLA      0.024100
    113 HHD        70.9880   57.1229   40.7972 da         1 CLA      0.174300
    114 HHC        75.7352   60.6651   43.7132 da         1 CLA      0.136800
    115 HHB        79.4436   60.1104   38.7138 da         1 CLA      0.138300
    116 HBD        74.7855   56.2100   35.0821 dc         1 CLA      0.107700
    117 HAB        77.1490   62.7193   43.6557 da         1 CLA      0.155200
    118 H93        85.1757   54.7618   39.6704 dc         1 CLA      0.069500
    119 H92        85.6672   55.5153   38.1202 dc         1 CLA      0.069500
    120 H91        86.0729   56.2530   39.6111 dc         1 CLA      0.069500
    121 H8         84.0732   57.2792   38.3602 dc         1 CLA      0.029300
    122 H72        81.8250   55.9525   39.1152 dc         1 CLA      0.044400
    123 H71        82.7242   54.6999   39.6799 dc         1 CLA      0.044400
    124 H62        83.5135   54.5438   37.0887 dc         1 CLA      0.015600
    125 H61        82.3906   55.9307   36.8879 dc         1 CLA      0.015600
    126 H52        80.4732   54.3944   37.5586 dc         1 CLA      0.033200
    127 H51        81.5104   53.1540   38.0783 dc         1 CLA      0.033200
    128 H43        82.0686   51.8000   34.7535 dc         1 CLA      0.037000
    129 H42        83.3804   52.9183   35.3682 dc         1 CLA      0.037000
    130 H41        82.5272   51.6343   36.3936 dc         1 CLA      0.037000
    131 H3A        79.2003   58.9647   36.3568 dc         1 CLA      0.041100
    132 H2A        77.9152   56.2987   36.3538 dc         1 CLA      0.083100
    133 H2         79.4232   52.5502   35.4541 da         1 CLA      0.180900
    134 H18        81.9408   62.7447   46.2378 dc         1 CLA     -0.003900
    135 H13        84.3141   57.8202   43.1800 dc         1 CLA      0.019700
    136 H12        79.1192   53.6818   33.7963 dc         1 CLA      0.120400
    137 H11        80.8101   54.1503   33.4721 dc         1 CLA      0.120400
    138 C1         67.3535   61.6255   50.7228 Z1         2 LUT      0.509236
    139 C2         65.9794   61.5265   51.3351 Z2         2 LUT     -0.434695
    140 C3         65.3624   62.8919   51.6676 Z3         2 LUT      0.437453
    141 O3         65.6966   63.1664   53.0455 S1         2 LUT     -0.547129
    142 C4         65.8740   64.0777   50.8439 Z4         2 LUT     -0.468603
    143 C5         66.4468   63.7118   49.4811 Z5         2 LUT      0.279246
    144 C6         67.1572   62.5161   49.4078 Z6         2 LUT     -0.305473
    145 C7         67.6657   61.8607   48.1444 Z7         2 LUT      0.069402
    146 C8         68.6619   62.3749   47.3867 Z8         2 LUT     -0.191631
    147 C9         69.0682   61.9424   46.0545 Z9         2 LUT      0.196698
    148 C10        70.1149   62.5119   45.4961 Y1         2 LUT     -0.208611
    149 C11        70.7907   62.1926   44.2347 Y2         2 LUT      0.030784
    150 C12        71.8784   62.8437   43.6979 Y3         2 LUT     -0.220316
    151 C13        72.6891   62.5413   42.4426 Y4         2 LUT      0.215937
    152 C14        73.8152   63.2767   42.2123 Y5         2 LUT     -0.185793
    153 C15        74.7544   63.2303   41.1454 Y6         2 LUT     -0.057835
    154 C16        67.9398   60.2073   50.5852 Y7         2 LUT     -0.405615
    155 C17        68.2553   62.2576   51.8507 Y7         2 LUT     -0.405615
    156 C18        66.0094   64.5120   48.2750 Y9         2 LUT     -0.369639
    157 C19        68.3391   60.7623   45.4096 W1         2 LUT     -0.333362
    158 C20        72.0383   61.7625   41.2766 W2         2 LUT     -0.323439
    159 C21        86.6697   64.8484   35.5371 Z1         2 LUT      0.406104
    160 C22        87.2833   64.1520   34.2945 Z2         2 LUT     -0.404965
    161 C23        87.2869   64.9890   33.0955 Z3         2 LUT      0.391255
    162 O23        87.8925   64.1879   32.0527 S1         2 LUT     -0.528210
    163 C24        85.9723   65.6427   32.8876 W6         2 LUT     -0.258361
    164 C25        85.0245   65.7744   33.8310 Z5         2 LUT      0.133546
    165 C26        85.1086   65.0359   35.1243 W8         2 LUT     -0.147008
    166 C27        84.3557   65.7850   36.2329 Z7         2 LUT      0.023843
    167 C28        83.4488   65.1088   36.9581 Z8         2 LUT     -0.216987
    168 C29        82.5353   65.5922   37.9446 Z9         2 LUT      0.206524
    169 C30        81.3857   64.8996   38.1679 Y1         2 LUT     -0.215556
    170 C31        80.3782   65.1715   39.1356 Y2         2 LUT      0.025142
    171 C32        79.1153   64.6980   39.1789 Y3         2 LUT     -0.212209
    172 C33        78.1732   64.8928   40.2437 Y4         2 LUT      0.240937
    173 C34        77.0831   64.1309   40.2312 Y5         2 LUT     -0.218862
    174 C35        75.9604   64.0059   41.1303 Y6         2 LUT     -0.023547
    175 C36        87.4654   66.0411   36.1152 Y7         2 LUT     -0.393485
    176 C37        86.7639   63.7924   36.6313 Y7         2 LUT     -0.393485
    177 C38        83.8104   66.5074   33.4910 Y9         2 LUT     -0.387526
    178 C39        82.9339   66.7742   38.8105 W1         2 LUT     -0.322618
    179 C40        78.5914   65.7270   41.4873 W2         2 LUT     -0.358472
    180 H403       77.7548   66.1045   42.0224 R7         2 LUT      0.097720
    181 H402       79.2822   65.2009   42.1454 R7         2 LUT      0.097720
    182 H401       79.0804   66.7036   41.2618 R7         2 LUT      0.097720
    183 H393       82.3147   67.0100   39.5719 R4         2 LUT      0.082505
    184 H392       83.9132   66.6540   39.2829 R4         2 LUT      0.082505
    185 H391       83.0958   67.5591   38.0551 R4         2 LUT      0.082505
    186 H383       83.6283   66.7581   32.4610 R1         2 LUT      0.104030
    187 H382       82.9336   65.8871   33.7008 R1         2 LUT      0.104030
    188 H381       83.6129   67.3716   34.0830 R1         2 LUT      0.104030
    189 H373       86.2894   64.0290   37.6052 T4         2 LUT      0.089537
    190 H372       86.4205   62.7896   36.3172 T4         2 LUT      0.089537
    191 H371       87.7796   63.4888   36.8127 T4         2 LUT      0.089537
    192 H363       87.3456   66.9420   35.4517 T4         2 LUT      0.089537
    193 H362       87.0046   66.3064   37.0703 T4         2 LUT      0.089537
    194 H361       88.5011   65.7183   36.2295 T4         2 LUT      0.089537
    195 H222       88.3494   64.1026   34.5753 U2         2 LUT      0.127376
    196 H221       86.7309   63.1841   34.0072 U2         2 LUT      0.127376
    197 H203       72.7825   61.1381   40.7744 R7         2 LUT      0.087068
    198 H202       71.2059   61.1092   41.5509 R7         2 LUT      0.087068
    199 H201       71.6860   62.4905   40.5493 R7         2 LUT      0.087068
    200 H193       67.8044   61.1835   44.5021 R4         2 LUT      0.089716
    201 H192       68.9572   59.9911   45.0930 R4         2 LUT      0.089716
    202 H191       67.5164   60.3095   45.9176 R4         2 LUT      0.089716
    203 H183       64.8939   64.4824   48.3116 R1         2 LUT      0.094572
    204 H182       66.4693   65.4751   48.2851 R1         2 LUT      0.094572
    205 H181       66.2837   64.0303   47.3651 R1         2 LUT      0.094572
    206 H173       68.0912   61.6240   52.7440 T4         2 LUT      0.093752
    207 H172       69.3266   62.0441   51.5531 T4         2 LUT      0.093752
    208 H171       68.1068   63.2844   52.2965 T4         2 LUT      0.093752
    209 H163       67.2540   59.6208   49.9923 T4         2 LUT      0.093752
    210 H162       68.8839   60.2215   50.0542 T4         2 LUT      0.093752
    211 H161       68.2187   59.7619   51.5172 T4         2 LUT      0.093752
    212 HO3        65.1445   62.6894   53.7118 Q1         2 LUT      0.300121
    213 H8         69.0798   63.3307   47.6178 U7         2 LUT      0.080784
    214 H7         67.0793   60.9740   47.8927 U6         2 LUT      0.042190
    215 H42        65.0411   64.8124   50.8148 U5         2 LUT      0.145166
    216 H41        66.6092   64.6445   51.4246 U5         2 LUT      0.145166
    217 H35        76.0889   64.6898   42.0364 T3         2 LUT      0.077919
    218 H34        76.9839   63.2465   39.5125 T2         2 LUT      0.073626
    219 H32        78.8262   64.0814   38.4022 T1         2 LUT      0.092510
    220 H31        80.6911   65.7334   40.0249 U9         2 LUT      0.070048
    221 H30        81.2053   64.0275   37.5190 U8         2 LUT      0.085442
    222 H3         64.2749   62.9482   51.6165 U3         2 LUT     -0.031596
    223 H28        83.2177   64.0894   36.6992 U7         2 LUT      0.084728
    224 H27        84.7015   66.7962   36.5554 U6         2 LUT      0.087291
    225 H26        84.7214   64.0304   35.0472 Q6         2 LUT      0.075325
    226 H24        85.8767   66.1929   31.9305 Q5         2 LUT      0.094482
    227 H23        87.9938   65.8503   33.3159 U3         2 LUT     -0.024869
    228 H22        65.3062   61.1735   50.5811 U2         2 LUT      0.127376
    229 H21        65.9518   60.9038   52.2094 U2         2 LUT      0.127376
    230 H15        74.7886   62.4879   40.3283 T3         2 LUT      0.093200
    231 H14        74.1288   64.0728   42.8879 T2         2 LUT      0.068865
    232 H12        72.2605   63.7040   44.2449 T1         2 LUT      0.095507
    233 H11        70.6139   61.2850   43.7323 U9         2 LUT      0.068930
    234 H10        70.6879   63.3444   45.8724 U8         2 LUT      0.083911
    235 H1         87.2148   63.7079   31.5256 Q1         2 LUT      0.297311
@<TRIPOS>BOND
    1     6     1 1
    2     7     2 1
    3     8     3 1
    4     9     4 1
    5    11     4 1
    6    12     6 1
    7    13     9 1
    8    16     9 1
    9    25     5 1
   10    25    16 1
   11    26    10 1
   12    26    17 1
   13    27    18 1
   14    28    14 1
   15    28    19 1
   16    29    12 1
   17    30    13 1
   18    31    24 1
   19    32     1 1
   20    32    25 1
   21    33    21 1
   22    33    26 1
   23    34    22 1
   24    34    27 1
   25    35    23 1
   26    35    28 1
   27    36    12 1
   28    36    24 1
   29    37    13 1
   30    37    15 1
   31    38    31 1
   32    39    20 1
   33    39    32 1
   34    40     2 1
   35    40    33 1
   36    41     3 1
   37    41    34 1
   38    42     4 1
   39    42    35 1
   40    43    38 1
   41    44     5 1
   42    44    17 1
   43    44    39 1
   44    45    10 1
   45    45    18 1
   46    45    40 1
   47    46    19 1
   48    46    41 1
   49    47    14 1
   50    47    16 1
   51    47    42 1
   52    48    38 1
   53    49    48 1
   54    50    49 1
   55    51    50 1
   56    52    51 1
   57    53    51 1
   58    54    53 1
   59    55    54 1
   60    56    55 1
   61    57    56 1
   62    58    56 1
   63    59    58 1
   64    60    59 1
   65    61    60 1
   66    62    61 1
   67    63    61 1
   68    64    27 1
   69    64    46 1
   70    65     5 1
   71    65    10 1
   72    65    64 1
   73    65    14 1
   74    66    23 1
   75    67    23 1
   76    68    23 1
   77    69    22 1
   78    70    22 1
   79    71    22 1
   80    72    21 1
   81    73    21 1
   82    74    21 1
   83    75    20 1
   84    76    20 1
   85    77    20 1
   86    78    15 1
   87    79    15 1
   88    80    15 1
   89    81     8 1
   90    82     8 1
   91    83     8 1
   92    84     7 1
   93    85     7 1
   94    86     6 1
   95    87     6 1
   96    88     3 1
   97    89     3 1
   98    90     1 1
   99    91     1 1
  100    92    63 1
  101    93    63 1
  102    94    63 1
  103    95    62 1
  104    96    62 1
  105    97    62 1
  106    98    60 1
  107    99    60 1
  108   100    59 1
  109   101    59 1
  110   102    58 1
  111   103    58 1
  112   104    57 1
  113   105    57 1
  114   106    57 1
  115   107    55 1
  116   108    55 1
  117   109    54 1
  118   110    54 1
  119   111    53 1
  120   112    53 1
  121   113    19 1
  122   114    18 1
  123   115    17 1
  124   116     9 1
  125   117     2 1
  126   118    52 1
  127   119    52 1
  128   120    52 1
  129   121    51 1
  130   122    50 1
  131   123    50 1
  132   124    49 1
  133   125    49 1
  134   126    48 1
  135   127    48 1
  136   128    43 1
  137   129    43 1
  138   130    43 1
  139   131    39 1
  140   132    32 1
  141   133    31 1
  142   134    61 1
  143   135    56 1
  144   136    24 1
  145   137    24 1
  146   139   138 1
  147   140   139 1
  148   141   140 1
  149   142   140 1
  150   143   142 1
  151   144   138 1
  152   144   143 1
  153   145   144 1
  154   146   145 1
  155   147   146 1
  156   148   147 1
  157   149   148 1
  158   150   149 1
  159   151   150 1
  160   152   151 1
  161   153   152 1
  162   154   138 1
  163   155   138 1
  164   156   143 1
  165   157   147 1
  166   158   151 1
  167   160   159 1
  168   161   160 1
  169   162   161 1
  170   163   161 1
  171   164   163 1
  172   165   159 1
  173   165   164 1
  174   166   165 1
  175   167   166 1
  176   168   167 1
  177   169   168 1
  178   170   169 1
  179   171   170 1
  180   172   171 1
  181   173   172 1
  182   174   153 1
  183   174   173 1
  184   175   159 1
  185   176   159 1
  186   177   164 1
  187   178   168 1
  188   179   172 1
  189   180   179 1
  190   181   179 1
  191   182   179 1
  192   183   178 1
  193   184   178 1
  194   185   178 1
  195   186   177 1
  196   187   177 1
  197   188   177 1
  198   189   176 1
  199   190   176 1
  200   191   176 1
  201   192   175 1
  202   193   175 1
  203   194   175 1
  204   195   160 1
  205   196   160 1
  206   197   158 1
  207   198   158 1
  208   199   158 1
  209   200   157 1
  210   201   157 1
  211   202   157 1
  212   203   156 1
  213   204   156 1
  214   205   156 1
  215   206   155 1
  216   207   155 1
  217   208   155 1
  218   209   154 1
  219   210   154 1
  220   211   154 1
  221   212   141 1
  222   213   146 1
  223   214   145 1
  224   215   142 1
  225   216   142 1
  226   217   174 1
  227   218   173 1
  228   219   171 1
  229   220   170 1
  230   221   169 1
  231   222   140 1
  232   223   167 1
  233   224   166 1
  234   225   165 1
  235   226   163 1
  236   227   161 1
  237   228   139 1
  238   229   139 1
  239   230   153 1
  240   231   152 1
  241   232   150 1
  242   233   149 1
  243   234   148 1
  244   235   162 1
  245   65    153 1
  246   65    174 1
@<TRIPOS>SUBSTRUCTURE
      1 CLA               1 ****               0 ****  **** 
      2 LUT             138 ****               0 ****  **** 
