@<TRIPOS>MOLECULE
Cpptraj generated mol2 file.
  235   246     2     0     0
SMALL
USER_CHARGES


@<TRIPOS>ATOM
      1 CAA        80.4343   59.2528   33.7989 a2         1 CLA     -0.055900
      2 CAB        79.2527   62.0051   43.0038 c8         1 CLA     -0.148500
      3 CAC        72.7542   57.7364   41.4638 a2         1 CLA     -0.012600
      4 CAD        76.5140   55.9557   34.4724 ck         1 CLA      0.398800
      5 NA         79.0662   59.1922   37.0421 ns         1 CLA     -0.225500
      6 CBA        81.7738   59.1828   32.9835 a2         1 CLA     -0.135000
      7 CBB        80.3960   62.0303   43.7578 c0         1 CLA     -0.395200
      8 CBC        72.8766   56.2788   41.8660 a3         1 CLA     -0.037700
      9 CBD        77.8933   56.6970   34.3256 a1         1 CLA     -0.053900
     10 NB         78.5897   60.4728   39.7342 nm         1 CLA     -0.295700
     11 OBD        75.8772   55.1529   33.7462 o2         1 CLA     -0.494600
     12 CGA        82.3110   57.7561   32.5994 c4         1 CLA      0.827000
     13 CGD        78.9953   55.6566   34.0672 c4         1 CLA      0.655300
     14 ND         76.4742   57.9562   37.3687 nm         1 CLA     -0.291600
     15 CED        79.9085   53.4854   34.6977 a3         1 CLA      0.005400
     16 CHA        78.0548   57.6420   35.4909 cs         1 CLA     -0.123800
     17 CHB        80.6877   60.5306   38.4466 aa         1 CLA     -0.291900
     18 CHC        77.0246   60.4176   41.5363 aa         1 CLA     -0.090400
     19 CHD        74.4206   57.5085   38.6991 aa         1 CLA     -0.052000
     20 CMA        82.5350   58.6268   36.7556 a3         1 CLA     -0.230700
     21 CMB        81.4912   62.3618   40.7728 a3         1 CLA     -0.180800
     22 CMC        74.5683   59.6544   43.3964 a3         1 CLA     -0.134000
     23 CMD        73.7103   55.5080   36.2982 a3         1 CLA     -0.141100
     24 C1         83.2796   55.7775   33.4882 a2         1 CLA      0.023000
     25 C1A        79.1004   58.4534   35.9070 ac         1 CLA     -0.015100
     26 C1B        79.8338   60.9267   39.5084 cr         1 CLA      0.054700
     27 C1C        76.0027   59.5775   41.0851 cn         1 CLA     -0.005600
     28 C1D        75.2003   57.3031   37.5741 ap         1 CLA     -0.047300
     29 O1A        82.2474   57.2110   31.5014 o2         1 CLA     -0.610800
     30 O1D        79.8950   55.7575   33.2262 o2         1 CLA     -0.558200
     31 C2         83.8551   55.3610   34.8093 c8         1 CLA     -0.325100
     32 C2A        80.4850   58.5910   35.2234 a1         1 CLA      0.098600
     33 C2B        80.2591   61.7111   40.6687 cb         1 CLA      0.088500
     34 C2C        74.8099   59.2403   41.9109 cb         1 CLA      0.053700
     35 C2D        74.8673   56.4683   36.4873 cb         1 CLA      0.058900
     36 O2A        82.8909   57.1565   33.7148 o1         1 CLA     -0.437200
     37 O2D        78.9129   54.5821   34.9898 o1         1 CLA     -0.357600
     38 C3         84.9317   54.5915   35.0649 c5         1 CLA      0.031200
     39 C3A        81.3624   59.3957   36.2217 a1         1 CLA      0.166800
     40 C3B        79.2455   61.5923   41.5860 cb         1 CLA      0.035000
     41 C3C        74.0438   58.4136   41.1071 cb         1 CLA     -0.089900
     42 C3D        76.0101   56.5033   35.6808 cb         1 CLA     -0.035900
     43 C4         84.9662   53.0847   35.3374 a3         1 CLA     -0.053300
     44 C4A        80.3226   59.7880   37.3006 ac         1 CLA      0.001800
     45 C4B        78.1650   60.8676   40.9087 cn         1 CLA     -0.020900
     46 C4C        74.7646   58.2615   39.8256 cr         1 CLA     -0.044400
     47 C4D        76.8946   57.4293   36.2365 c6         1 CLA     -0.046000
     48 C5         86.3594   55.2395   35.0786 a2         1 CLA     -0.070400
     49 C6         86.5720   56.3868   36.1031 a2         1 CLA      0.043900
     50 C7         86.4626   55.8091   37.4873 a2         1 CLA     -0.150000
     51 C8         86.6176   56.9528   38.5980 a1         1 CLA      0.064200
     52 C9         88.0042   57.7511   38.4336 a3         1 CLA     -0.259300
     53 C10        86.3790   56.4003   40.0645 a2         1 CLA     -0.071900
     54 C11        87.1177   57.1524   41.2297 a2         1 CLA      0.014500
     55 C12        86.6977   56.5621   42.5493 a2         1 CLA     -0.112100
     56 C13        87.3729   57.2154   43.8344 a1         1 CLA      0.089200
     57 C14        88.8566   57.0971   43.7769 a3         1 CLA     -0.239100
     58 C15        86.7087   56.7933   45.1747 a2         1 CLA     -0.102200
     59 C16        85.1817   56.8030   45.2633 a2         1 CLA      0.023900
     60 C17        84.7109   58.3244   45.3437 a2         1 CLA     -0.105700
     61 C18        83.1804   58.5436   45.5561 a1         1 CLA      0.206800
     62 C19        82.6437   57.7871   46.8851 a3         1 CLA     -0.280100
     63 C20        82.8020   60.0455   45.4897 a3         1 CLA     -0.280100
     64 NC         75.8894   59.0123   39.8338 nx         1 CLA     -0.309200
     65 MG         77.4119   59.2788   38.4479 mg         1 CLA      0.895000
     66 HMD3       72.7826   56.0329   36.0447 dc         1 CLA      0.064300
     67 HMD2       73.8882   54.7915   35.4339 dc         1 CLA      0.064300
     68 HMD1       73.6242   54.7817   37.1012 dc         1 CLA      0.064300
     69 HMC3       75.1440   58.9535   44.0158 dc         1 CLA      0.052100
     70 HMC2       74.9449   60.7015   43.4684 dc         1 CLA      0.052100
     71 HMC1       73.4945   59.4953   43.6355 dc         1 CLA      0.052100
     72 HMB3       81.9823   62.7104   39.9283 dc         1 CLA      0.063600
     73 HMB2       81.3011   63.1608   41.4359 dc         1 CLA      0.063600
     74 HMB1       82.2495   61.7598   41.2172 dc         1 CLA      0.063600
     75 HMA3       82.2842   57.7280   37.2603 dc         1 CLA      0.058300
     76 HMA2       83.1628   58.3945   35.8723 dc         1 CLA      0.058300
     77 HMA1       83.1113   59.3227   37.3130 dc         1 CLA      0.058300
     78 HED3       79.8566   52.6451   35.4335 dc         1 CLA      0.079300
     79 HED2       79.6930   53.1752   33.6930 dc         1 CLA      0.079300
     80 HED1       80.9285   53.8703   34.6723 dc         1 CLA      0.079300
     81 HBC3       73.2830   55.7211   41.0021 dc         1 CLA      0.016300
     82 HBC2       73.4438   56.1308   42.8105 dc         1 CLA      0.016300
     83 HBC1       71.8769   55.7330   41.9344 dc         1 CLA      0.016300
     84 HBB2       80.4397   62.2939   44.7736 da         1 CLA      0.183000
     85 HBB1       81.3318   61.6145   43.3639 da         1 CLA      0.183000
     86 HBA2       81.6811   59.6528   32.0236 dc         1 CLA      0.029400
     87 HBA1       82.5682   59.7141   33.5355 dc         1 CLA      0.029400
     88 HAC2       72.1857   58.2453   42.2332 dc         1 CLA      0.029300
     89 HAC1       72.1487   57.7669   40.6140 dc         1 CLA      0.029300
     90 HAA2       79.7194   58.6629   33.3142 dc         1 CLA      0.028700
     91 HAA1       80.1369   60.2734   33.8108 dc         1 CLA      0.028700
     92 H203       81.7600   60.1687   45.8250 dc         1 CLA      0.065600
     93 H202       83.4161   60.6135   46.2146 dc         1 CLA      0.065600
     94 H201       82.8981   60.3710   44.4865 dc         1 CLA      0.065600
     95 H193       81.6148   58.1426   46.9665 dc         1 CLA      0.065600
     96 H192       82.5743   56.7149   46.7170 dc         1 CLA      0.065600
     97 H191       83.3077   57.9326   47.7571 dc         1 CLA      0.065600
     98 H172       85.2410   58.9467   46.0557 dc         1 CLA      0.027600
     99 H171       84.8979   58.6744   44.3476 dc         1 CLA      0.027600
    100 H162       84.7401   56.1289   44.5181 dc         1 CLA      0.002900
    101 H161       84.8114   56.3314   46.1503 dc         1 CLA      0.002900
    102 H152       86.8968   55.7470   45.3748 dc         1 CLA      0.029100
    103 H151       87.2418   57.3069   45.9773 dc         1 CLA      0.029100
    104 H143       89.4071   57.7813   44.4640 dc         1 CLA      0.063600
    105 H142       89.1375   56.1134   44.0883 dc         1 CLA      0.063600
    106 H141       89.3331   57.3422   42.8255 dc         1 CLA      0.063600
    107 H122       85.5843   56.6679   42.5804 dc         1 CLA      0.032500
    108 H121       86.7215   55.4469   42.5042 dc         1 CLA      0.032500
    109 H112       88.1395   57.0093   40.9741 dc         1 CLA      0.006600
    110 H111       87.0203   58.2561   41.1665 dc         1 CLA      0.006600
    111 H102       85.3542   56.2257   40.2883 dc         1 CLA      0.024100
    112 H101       86.8672   55.4103   39.9037 dc         1 CLA      0.024100
    113 HHD        73.4797   56.9929   38.8216 da         1 CLA      0.174300
    114 HHC        76.8722   60.8401   42.4967 da         1 CLA      0.136800
    115 HHB        81.6945   60.9533   38.2767 da         1 CLA      0.138300
    116 HBD        77.7680   57.2627   33.4221 dc         1 CLA      0.107700
    117 HAB        78.3435   62.3093   43.5085 da         1 CLA      0.155200
    118 H93        88.1242   58.2576   37.5026 dc         1 CLA      0.069500
    119 H92        88.1341   58.5398   39.1827 dc         1 CLA      0.069500
    120 H91        88.7686   57.0397   38.6098 dc         1 CLA      0.069500
    121 H8         85.8271   57.7001   38.4085 dc         1 CLA      0.029300
    122 H72        85.5125   55.3577   37.7558 dc         1 CLA      0.044400
    123 H71        87.2063   55.0059   37.5748 dc         1 CLA      0.044400
    124 H62        87.6674   56.6608   35.9752 dc         1 CLA      0.015600
    125 H61        85.8819   57.2102   35.8624 dc         1 CLA      0.015600
    126 H52        87.1045   54.4713   35.3226 dc         1 CLA      0.033200
    127 H51        86.6742   55.5310   34.0890 dc         1 CLA      0.033200
    128 H43        85.2793   52.8562   36.3451 dc         1 CLA      0.037000
    129 H42        83.9914   52.7014   35.2862 dc         1 CLA      0.037000
    130 H41        85.5939   52.5245   34.7205 dc         1 CLA      0.037000
    131 H3A        81.7928   60.3003   35.7607 dc         1 CLA      0.041100
    132 H2A        80.9298   57.5905   35.1102 dc         1 CLA      0.083100
    133 H2         83.3574   55.7883   35.7067 da         1 CLA      0.180900
    134 H18        82.6987   58.0627   44.6886 dc         1 CLA     -0.003900
    135 H13        87.1913   58.2861   43.7834 dc         1 CLA      0.019700
    136 H12        82.5052   55.1016   33.1313 dc         1 CLA      0.120400
    137 H11        84.1338   55.7789   32.8281 dc         1 CLA      0.120400
    138 C1         69.2154   61.5820   48.9881 Z1         2 LUT      0.509236
    139 C2         67.7201   61.4213   49.4006 Z2         2 LUT     -0.434695
    140 C3         66.9205   62.6424   49.8580 Z3         2 LUT      0.437453
    141 O3         67.0961   62.7476   51.2908 S1         2 LUT     -0.547129
    142 C4         67.4290   63.9380   49.1283 Z4         2 LUT     -0.468603
    143 C5         68.4023   63.7274   47.9771 Z5         2 LUT      0.279246
    144 C6         69.2028   62.6766   47.9240 Z6         2 LUT     -0.305473
    145 C7         69.6599   62.2385   46.5870 Z7         2 LUT      0.069402
    146 C8         70.4988   62.9728   45.8415 Z8         2 LUT     -0.191631
    147 C9         71.1933   62.6229   44.6338 Z9         2 LUT      0.196698
    148 C10        72.2421   63.3955   44.1296 Y1         2 LUT     -0.208611
    149 C11        73.0972   63.2199   42.9749 Y2         2 LUT      0.030784
    150 C12        74.2221   64.0564   42.8339 Y3         2 LUT     -0.220316
    151 C13        75.2275   64.0516   41.6952 Y4         2 LUT      0.215937
    152 C14        76.3662   64.8215   41.7719 Y5         2 LUT     -0.185793
    153 C15        77.5560   64.6524   41.0241 Y6         2 LUT     -0.057835
    154 C16        69.7712   60.2230   48.5128 Y7         2 LUT     -0.405615
    155 C17        70.0653   62.2210   50.1654 Y7         2 LUT     -0.405615
    156 C18        67.9567   64.5285   46.7143 Y9         2 LUT     -0.369639
    157 C19        70.6384   61.4331   43.9378 W1         2 LUT     -0.333362
    158 C20        74.9635   63.4616   40.3663 W2         2 LUT     -0.323439
    159 C21        88.9627   65.8969   34.7761 Z1         2 LUT      0.406104
    160 C22        89.8019   65.3966   33.5766 Z2         2 LUT     -0.404965
    161 C23        89.9609   66.1948   32.3035 Z3         2 LUT      0.391255
    162 O23        90.3675   65.2531   31.3531 S1         2 LUT     -0.528210
    163 C24        88.7080   66.9789   32.0599 W6         2 LUT     -0.258361
    164 C25        87.6934   67.0780   32.9017 Z5         2 LUT      0.133546
    165 C26        87.5863   66.4153   34.2146 W8         2 LUT     -0.147008
    166 C27        86.7206   66.9770   35.3474 Z7         2 LUT      0.023843
    167 C28        85.5981   66.3901   35.8762 Z8         2 LUT     -0.216987
    168 C29        84.8484   66.8614   37.0462 Z9         2 LUT      0.206524
    169 C30        83.6859   66.2305   37.3712 Y1         2 LUT     -0.215556
    170 C31        82.9254   66.4687   38.5560 Y2         2 LUT      0.025142
    171 C32        81.8005   65.8130   38.9863 Y3         2 LUT     -0.212209
    172 C33        80.8616   66.0447   40.1274 Y4         2 LUT      0.240937
    173 C34        79.8220   65.1977   40.2446 Y5         2 LUT     -0.218862
    174 C35        78.6822   65.3449   41.1497 Y6         2 LUT     -0.023547
    175 C36        89.7965   67.0353   35.4295 Y7         2 LUT     -0.393485
    176 C37        88.9551   64.6372   35.6997 Y7         2 LUT     -0.393485
    177 C38        86.4361   67.7375   32.4513 Y9         2 LUT     -0.387526
    178 C39        85.5227   67.9664   37.8839 W1         2 LUT     -0.322618
    179 C40        81.3736   66.9100   41.2014 W2         2 LUT     -0.358472
    180 H403       81.9012   67.7829   40.7926 R7         2 LUT      0.097720
    181 H402       80.7531   67.3377   41.9646 R7         2 LUT      0.097720
    182 H401       82.2301   66.4564   41.6161 R7         2 LUT      0.097720
    183 H393       85.1342   68.0548   38.8714 R4         2 LUT      0.082505
    184 H392       86.5446   67.8605   38.0081 R4         2 LUT      0.082505
    185 H391       85.4750   68.9272   37.3548 R4         2 LUT      0.082505
    186 H383       86.1118   68.5428   33.0745 R1         2 LUT      0.104030
    187 H382       86.5332   68.1986   31.4745 R1         2 LUT      0.104030
    188 H381       85.6057   67.0845   32.5782 R1         2 LUT      0.104030
    189 H373       89.9597   64.3009   36.0195 T4         2 LUT      0.089537
    190 H372       88.3579   64.9820   36.5553 T4         2 LUT      0.089537
    191 H371       88.4495   63.7087   35.2640 T4         2 LUT      0.089537
    192 H363       90.0735   67.8552   34.8551 T4         2 LUT      0.089537
    193 H362       89.2436   67.4603   36.2645 T4         2 LUT      0.089537
    194 H361       90.6863   66.6209   35.9911 T4         2 LUT      0.089537
    195 H222       90.8304   65.1056   33.8991 U2         2 LUT      0.127376
    196 H221       89.3574   64.4562   33.2402 U2         2 LUT      0.127376
    197 H203       75.1748   64.0762   39.5434 R7         2 LUT      0.087068
    198 H202       75.7242   62.6426   40.2984 R7         2 LUT      0.087068
    199 H201       73.9751   63.0248   40.1776 R7         2 LUT      0.087068
    200 H193       69.6074   61.5634   43.6445 R4         2 LUT      0.089716
    201 H192       71.0602   61.2601   42.9678 R4         2 LUT      0.089716
    202 H191       70.5992   60.4885   44.5427 R4         2 LUT      0.089716
    203 H183       68.7094   65.2806   46.4771 R1         2 LUT      0.094572
    204 H182       67.7407   63.7789   45.9273 R1         2 LUT      0.094572
    205 H181       67.0008   65.0808   46.8274 R1         2 LUT      0.094572
    206 H173       71.0035   62.6922   49.8870 T4         2 LUT      0.093752
    207 H172       69.4858   62.9882   50.7814 T4         2 LUT      0.093752
    208 H171       70.3189   61.5851   50.9696 T4         2 LUT      0.093752
    209 H163       70.6925   60.3643   47.9818 T4         2 LUT      0.093752
    210 H162       70.0485   59.5198   49.2982 T4         2 LUT      0.093752
    211 H161       69.0313   59.6793   47.8705 T4         2 LUT      0.093752
    212 HO3        66.5287   62.1138   51.7103 Q1         2 LUT      0.300121
    213 H8         70.7820   63.9055   46.2636 U7         2 LUT      0.080784
    214 H7         69.4184   61.2251   46.2580 U6         2 LUT      0.042190
    215 H42        66.4870   64.5040   48.8919 U5         2 LUT      0.145166
    216 H41        67.8297   64.7073   49.8150 U5         2 LUT      0.145166
    217 H35        78.7311   66.1537   41.8866 T3         2 LUT      0.077919
    218 H34        79.7343   64.3672   39.5191 T2         2 LUT      0.073626
    219 H32        81.4857   64.9782   38.3568 T1         2 LUT      0.092510
    220 H31        83.2225   67.2782   39.2743 U9         2 LUT      0.070048
    221 H30        83.4607   65.4752   36.6743 U8         2 LUT      0.085442
    222 H3         65.8487   62.5759   49.4778 U3         2 LUT     -0.031596
    223 H28        85.0814   65.5990   35.3279 U7         2 LUT      0.084728
    224 H27        87.1650   67.8377   35.7468 U6         2 LUT      0.087291
    225 H26        86.9922   65.4992   33.9937 Q6         2 LUT      0.075325
    226 H24        88.6409   67.3167   31.0291 Q5         2 LUT      0.094482
    227 H23        90.7930   66.8916   32.4496 U3         2 LUT     -0.024869
    228 H22        67.1512   60.9583   48.5907 U2         2 LUT      0.127376
    229 H21        67.6832   60.6399   50.1560 U2         2 LUT      0.127376
    230 H15        77.6197   63.8597   40.3202 T3         2 LUT      0.093200
    231 H14        76.5861   65.4079   42.7041 T2         2 LUT      0.068865
    232 H12        74.3820   64.8339   43.5769 T1         2 LUT      0.095507
    233 H11        72.9553   62.4044   42.3016 U9         2 LUT      0.068930
    234 H10        72.5583   64.2161   44.7423 U8         2 LUT      0.083911
    235 H1         90.6726   65.7295   30.5561 Q1         2 LUT      0.297311
@<TRIPOS>BOND
    1     6     1 1
    2     7     2 1
    3     8     3 1
    4     9     4 1
    5    11     4 1
    6    12     6 1
    7    13     9 1
    8    16     9 1
    9    25     5 1
   10    25    16 1
   11    26    10 1
   12    26    17 1
   13    27    18 1
   14    28    14 1
   15    28    19 1
   16    29    12 1
   17    30    13 1
   18    31    24 1
   19    32     1 1
   20    32    25 1
   21    33    21 1
   22    33    26 1
   23    34    22 1
   24    34    27 1
   25    35    23 1
   26    35    28 1
   27    36    12 1
   28    36    24 1
   29    37    13 1
   30    37    15 1
   31    38    31 1
   32    39    20 1
   33    39    32 1
   34    40     2 1
   35    40    33 1
   36    41     3 1
   37    41    34 1
   38    42     4 1
   39    42    35 1
   40    43    38 1
   41    44     5 1
   42    44    17 1
   43    44    39 1
   44    45    10 1
   45    45    18 1
   46    45    40 1
   47    46    19 1
   48    46    41 1
   49    47    14 1
   50    47    16 1
   51    47    42 1
   52    48    38 1
   53    49    48 1
   54    50    49 1
   55    51    50 1
   56    52    51 1
   57    53    51 1
   58    54    53 1
   59    55    54 1
   60    56    55 1
   61    57    56 1
   62    58    56 1
   63    59    58 1
   64    60    59 1
   65    61    60 1
   66    62    61 1
   67    63    61 1
   68    64    27 1
   69    64    46 1
   70    65     5 1
   71    65    10 1
   72    65    64 1
   73    65    14 1
   74    66    23 1
   75    67    23 1
   76    68    23 1
   77    69    22 1
   78    70    22 1
   79    71    22 1
   80    72    21 1
   81    73    21 1
   82    74    21 1
   83    75    20 1
   84    76    20 1
   85    77    20 1
   86    78    15 1
   87    79    15 1
   88    80    15 1
   89    81     8 1
   90    82     8 1
   91    83     8 1
   92    84     7 1
   93    85     7 1
   94    86     6 1
   95    87     6 1
   96    88     3 1
   97    89     3 1
   98    90     1 1
   99    91     1 1
  100    92    63 1
  101    93    63 1
  102    94    63 1
  103    95    62 1
  104    96    62 1
  105    97    62 1
  106    98    60 1
  107    99    60 1
  108   100    59 1
  109   101    59 1
  110   102    58 1
  111   103    58 1
  112   104    57 1
  113   105    57 1
  114   106    57 1
  115   107    55 1
  116   108    55 1
  117   109    54 1
  118   110    54 1
  119   111    53 1
  120   112    53 1
  121   113    19 1
  122   114    18 1
  123   115    17 1
  124   116     9 1
  125   117     2 1
  126   118    52 1
  127   119    52 1
  128   120    52 1
  129   121    51 1
  130   122    50 1
  131   123    50 1
  132   124    49 1
  133   125    49 1
  134   126    48 1
  135   127    48 1
  136   128    43 1
  137   129    43 1
  138   130    43 1
  139   131    39 1
  140   132    32 1
  141   133    31 1
  142   134    61 1
  143   135    56 1
  144   136    24 1
  145   137    24 1
  146   139   138 1
  147   140   139 1
  148   141   140 1
  149   142   140 1
  150   143   142 1
  151   144   138 1
  152   144   143 1
  153   145   144 1
  154   146   145 1
  155   147   146 1
  156   148   147 1
  157   149   148 1
  158   150   149 1
  159   151   150 1
  160   152   151 1
  161   153   152 1
  162   154   138 1
  163   155   138 1
  164   156   143 1
  165   157   147 1
  166   158   151 1
  167   160   159 1
  168   161   160 1
  169   162   161 1
  170   163   161 1
  171   164   163 1
  172   165   159 1
  173   165   164 1
  174   166   165 1
  175   167   166 1
  176   168   167 1
  177   169   168 1
  178   170   169 1
  179   171   170 1
  180   172   171 1
  181   173   172 1
  182   174   153 1
  183   174   173 1
  184   175   159 1
  185   176   159 1
  186   177   164 1
  187   178   168 1
  188   179   172 1
  189   180   179 1
  190   181   179 1
  191   182   179 1
  192   183   178 1
  193   184   178 1
  194   185   178 1
  195   186   177 1
  196   187   177 1
  197   188   177 1
  198   189   176 1
  199   190   176 1
  200   191   176 1
  201   192   175 1
  202   193   175 1
  203   194   175 1
  204   195   160 1
  205   196   160 1
  206   197   158 1
  207   198   158 1
  208   199   158 1
  209   200   157 1
  210   201   157 1
  211   202   157 1
  212   203   156 1
  213   204   156 1
  214   205   156 1
  215   206   155 1
  216   207   155 1
  217   208   155 1
  218   209   154 1
  219   210   154 1
  220   211   154 1
  221   212   141 1
  222   213   146 1
  223   214   145 1
  224   215   142 1
  225   216   142 1
  226   217   174 1
  227   218   173 1
  228   219   171 1
  229   220   170 1
  230   221   169 1
  231   222   140 1
  232   223   167 1
  233   224   166 1
  234   225   165 1
  235   226   163 1
  236   227   161 1
  237   228   139 1
  238   229   139 1
  239   230   153 1
  240   231   152 1
  241   232   150 1
  242   233   149 1
  243   234   148 1
  244   235   162 1
  245   65    153 1
  246   65    174 1
@<TRIPOS>SUBSTRUCTURE
      1 CLA               1 ****               0 ****  **** 
      2 LUT             138 ****               0 ****  **** 
