@<TRIPOS>MOLECULE
Cpptraj generated mol2 file.
  235   246     2     0     0
SMALL
USER_CHARGES


@<TRIPOS>ATOM
      1 CAA        79.5986   59.7096   34.1587 a2         1 CLA     -0.055900
      2 CAB        78.7687   62.8099   43.3815 c8         1 CLA     -0.148500
      3 CAC        72.2444   58.5360   42.1853 a2         1 CLA     -0.012600
      4 CAD        75.4292   56.6441   34.9491 ck         1 CLA      0.398800
      5 NA         78.4185   59.6034   37.5556 ns         1 CLA     -0.225500
      6 CBA        80.9232   59.5588   33.3798 a2         1 CLA     -0.135000
      7 CBB        79.8279   62.9512   44.2136 c0         1 CLA     -0.395200
      8 CBC        72.4434   57.0031   42.3333 a3         1 CLA     -0.037700
      9 CBD        76.9058   57.2448   34.7947 a1         1 CLA     -0.053900
     10 NB         77.9633   61.1408   40.1308 nm         1 CLA     -0.295700
     11 OBD        74.8779   55.8483   34.2276 o2         1 CLA     -0.494600
     12 CGA        81.4577   58.1515   32.9704 c4         1 CLA      0.827000
     13 CGD        77.9642   56.2013   34.4475 c4         1 CLA      0.655300
     14 ND         75.5669   58.6541   37.8827 nm         1 CLA     -0.291600
     15 CED        78.9017   53.9652   35.0795 a3         1 CLA      0.005400
     16 CHA        77.2601   58.1178   36.0420 cs         1 CLA     -0.123800
     17 CHB        80.0366   60.9933   38.7404 aa         1 CLA     -0.291900
     18 CHC        76.5621   61.1907   42.0880 aa         1 CLA     -0.090400
     19 CHD        73.6841   58.2527   39.4392 aa         1 CLA     -0.052000
     20 CMA        81.6296   58.5925   37.2848 a3         1 CLA     -0.230700
     21 CMB        81.1528   62.8396   40.9787 a3         1 CLA     -0.180800
     22 CMC        74.0976   60.6860   43.8543 a3         1 CLA     -0.134000
     23 CMD        72.6320   56.4385   37.1790 a3         1 CLA     -0.141100
     24 C1         82.5054   56.0723   33.5364 a2         1 CLA      0.023000
     25 C1A        78.4114   58.8402   36.4088 ac         1 CLA     -0.015100
     26 C1B        79.2467   61.4821   39.8686 cr         1 CLA      0.054700
     27 C1C        75.4559   60.4150   41.7643 cn         1 CLA     -0.005600
     28 C1D        74.3780   58.0569   38.2298 ap         1 CLA     -0.047300
     29 O1A        81.3844   57.7532   31.8141 o2         1 CLA     -0.610800
     30 O1D        78.7457   56.2197   33.5382 o2         1 CLA     -0.558200
     31 C2         83.0371   55.4900   34.7904 c8         1 CLA     -0.325100
     32 C2A        79.7087   58.9759   35.5319 a1         1 CLA      0.098600
     33 C2B        79.8579   62.2030   40.9879 cb         1 CLA      0.088500
     34 C2C        74.2602   60.1602   42.5338 cb         1 CLA      0.053700
     35 C2D        73.9350   57.2074   37.1281 cb         1 CLA      0.058900
     36 O2A        81.9676   57.3660   33.9645 o1         1 CLA     -0.437200
     37 O2D        77.9108   55.0825   35.2350 o1         1 CLA     -0.357600
     38 C3         83.9167   54.5256   34.8505 c5         1 CLA      0.031200
     39 C3A        80.6466   59.5871   36.6389 a1         1 CLA      0.166800
     40 C3B        78.8450   62.2188   41.9873 cb         1 CLA      0.035000
     41 C3C        73.4604   59.3116   41.7841 cb         1 CLA     -0.089900
     42 C3D        74.9801   57.1803   36.2168 cb         1 CLA     -0.035900
     43 C4         83.5225   53.1545   35.3269 a3         1 CLA     -0.053300
     44 C4A        79.6278   60.1514   37.7072 ac         1 CLA      0.001800
     45 C4B        77.7132   61.5088   41.3920 cn         1 CLA     -0.020900
     46 C4C        74.1158   59.0621   40.5047 cr         1 CLA     -0.044400
     47 C4D        76.0186   58.0147   36.7943 c6         1 CLA     -0.046000
     48 C5         85.4021   54.7468   34.6399 a2         1 CLA     -0.070400
     49 C6         86.0474   55.9305   35.4230 a2         1 CLA      0.043900
     50 C7         85.8597   56.0076   36.9883 a2         1 CLA     -0.150000
     51 C8         87.0312   55.5138   37.8606 a1         1 CLA      0.064200
     52 C9         87.4047   54.0387   37.5208 a3         1 CLA     -0.259300
     53 C10        86.9866   55.7634   39.3881 a2         1 CLA     -0.071900
     54 C11        86.6005   57.1573   39.9730 a2         1 CLA      0.014500
     55 C12        86.8236   57.2182   41.4837 a2         1 CLA     -0.112100
     56 C13        86.2672   58.4590   42.2749 a1         1 CLA      0.089200
     57 C14        86.8349   59.8267   41.6777 a3         1 CLA     -0.239100
     58 C15        86.4340   58.3801   43.8282 a2         1 CLA     -0.102200
     59 C16        85.8256   57.0779   44.5158 a2         1 CLA      0.023900
     60 C17        85.6577   57.3128   46.0242 a2         1 CLA     -0.105700
     61 C18        84.5367   58.2668   46.5770 a1         1 CLA      0.206800
     62 C19        83.0237   57.7807   46.3711 a3         1 CLA     -0.280100
     63 C20        84.8114   58.4251   48.0951 a3         1 CLA     -0.280100
     64 NC         75.3203   59.7631   40.5623 nx         1 CLA     -0.309200
     65 MG         76.8204   59.8507   38.9416 mg         1 CLA      0.895000
     66 HMD3       72.5673   55.7759   38.0095 dc         1 CLA      0.064300
     67 HMD2       71.8725   57.2253   37.0976 dc         1 CLA      0.064300
     68 HMD1       72.5877   55.8896   36.2577 dc         1 CLA      0.064300
     69 HMC3       74.8808   60.4797   44.6073 dc         1 CLA      0.052100
     70 HMC2       74.0499   61.7894   43.8981 dc         1 CLA      0.052100
     71 HMC1       73.1681   60.4267   44.2962 dc         1 CLA      0.052100
     72 HMB3       81.9313   62.1689   41.2002 dc         1 CLA      0.063600
     73 HMB2       81.3369   63.2469   40.0597 dc         1 CLA      0.063600
     74 HMB1       81.2005   63.6386   41.7259 dc         1 CLA      0.063600
     75 HMA3       81.0548   57.6836   37.6725 dc         1 CLA      0.058300
     76 HMA2       82.4636   58.2873   36.6042 dc         1 CLA      0.058300
     77 HMA1       82.1869   59.1337   38.0656 dc         1 CLA      0.058300
     78 HED3       79.9094   54.3542   35.1213 dc         1 CLA      0.079300
     79 HED2       78.8245   53.2483   35.9951 dc         1 CLA      0.079300
     80 HED1       78.6910   53.4127   34.1688 dc         1 CLA      0.079300
     81 HBC3       73.4242   56.7250   42.7389 dc         1 CLA      0.016300
     82 HBC2       71.7108   56.6136   42.9814 dc         1 CLA      0.016300
     83 HBC1       72.2271   56.5448   41.3978 dc         1 CLA      0.016300
     84 HBB2       79.7637   63.2675   45.2621 da         1 CLA      0.183000
     85 HBB1       80.8312   62.7088   43.9430 da         1 CLA      0.183000
     86 HBA2       80.8311   60.1962   32.4778 dc         1 CLA      0.029400
     87 HBA1       81.7384   60.0617   33.9314 dc         1 CLA      0.029400
     88 HAC2       71.9075   58.9796   43.1533 dc         1 CLA      0.029300
     89 HAC1       71.5224   58.8267   41.4695 dc         1 CLA      0.029300
     90 HAA2       78.7319   59.2095   33.7166 dc         1 CLA      0.028700
     91 HAA1       79.2015   60.7445   34.2709 dc         1 CLA      0.028700
     92 H203       85.8412   58.6446   48.3481 dc         1 CLA      0.065600
     93 H202       84.2368   59.2673   48.4438 dc         1 CLA      0.065600
     94 H201       84.4337   57.6441   48.6918 dc         1 CLA      0.065600
     95 H193       82.9997   57.6742   45.3156 dc         1 CLA      0.065600
     96 H192       82.7996   56.8264   46.8843 dc         1 CLA      0.065600
     97 H191       82.3629   58.5305   46.6995 dc         1 CLA      0.065600
     98 H172       85.5473   56.3441   46.5510 dc         1 CLA      0.027600
     99 H171       86.6111   57.7921   46.3416 dc         1 CLA      0.027600
    100 H162       84.8576   56.8871   44.0800 dc         1 CLA      0.002900
    101 H161       86.4899   56.1313   44.3173 dc         1 CLA      0.002900
    102 H152       87.5350   58.2936   43.9898 dc         1 CLA      0.029100
    103 H151       85.9531   59.2244   44.3647 dc         1 CLA      0.029100
    104 H143       87.9168   59.8086   41.7998 dc         1 CLA      0.063600
    105 H142       86.6675   59.8421   40.6486 dc         1 CLA      0.063600
    106 H141       86.3864   60.6959   42.1585 dc         1 CLA      0.063600
    107 H122       86.4480   56.2885   41.9262 dc         1 CLA      0.032500
    108 H121       87.9117   57.1784   41.6925 dc         1 CLA      0.032500
    109 H112       87.1270   57.8464   39.3881 dc         1 CLA      0.006600
    110 H111       85.5269   57.3857   39.8043 dc         1 CLA      0.006600
    111 H102       86.3752   55.1000   39.7900 dc         1 CLA      0.024100
    112 H101       88.0362   55.7007   39.7010 dc         1 CLA      0.024100
    113 HHD        72.7775   57.7139   39.6402 da         1 CLA      0.174300
    114 HHC        76.4685   61.6034   43.1104 da         1 CLA      0.136800
    115 HHB        81.1302   61.2769   38.7353 da         1 CLA      0.138300
    116 HBD        76.8057   57.8323   33.9333 dc         1 CLA      0.107700
    117 HAB        77.7843   63.2085   43.6960 da         1 CLA      0.155200
    118 H93        88.0969   53.8968   36.7037 dc         1 CLA      0.069500
    119 H92        87.9353   53.5312   38.3432 dc         1 CLA      0.069500
    120 H91        86.3704   53.5656   37.2722 dc         1 CLA      0.069500
    121 H8         87.8517   56.0843   37.5613 dc         1 CLA      0.029300
    122 H72        85.5891   57.1012   37.2329 dc         1 CLA      0.044400
    123 H71        84.9516   55.5191   37.2845 dc         1 CLA      0.044400
    124 H62        87.0823   56.1094   35.2212 dc         1 CLA      0.015600
    125 H61        85.4080   56.7831   35.0373 dc         1 CLA      0.015600
    126 H52        85.9726   53.9118   35.1029 dc         1 CLA      0.033200
    127 H51        85.5132   54.8428   33.5567 dc         1 CLA      0.033200
    128 H43        82.4513   53.2997   35.6243 dc         1 CLA      0.037000
    129 H42        83.4348   52.4741   34.4580 dc         1 CLA      0.037000
    130 H41        84.0753   52.8817   36.2059 dc         1 CLA      0.037000
    131 H3A        81.0956   60.4753   36.3018 dc         1 CLA      0.041100
    132 H2A        80.0394   57.9463   35.2830 dc         1 CLA      0.083100
    133 H2         82.8521   55.9902   35.7626 da         1 CLA      0.180900
    134 H18        84.7386   59.2267   46.1353 dc         1 CLA     -0.003900
    135 H13        85.2155   58.5402   42.0534 dc         1 CLA      0.019700
    136 H12        81.7515   55.3321   33.2996 dc         1 CLA      0.120400
    137 H11        83.3524   56.1833   32.8260 dc         1 CLA      0.120400
    138 C1         68.5836   61.6180   49.5322 Z1         2 LUT      0.509236
    139 C2         67.0797   61.5294   49.8961 Z2         2 LUT     -0.434695
    140 C3         66.3744   62.7984   50.3007 Z3         2 LUT      0.437453
    141 O3         66.4025   63.0109   51.7324 S1         2 LUT     -0.547129
    142 C4         66.8846   64.0233   49.4911 Z4         2 LUT     -0.468603
    143 C5         67.7771   63.7052   48.3176 Z5         2 LUT      0.279246
    144 C6         68.6237   62.6588   48.3386 Z6         2 LUT     -0.305473
    145 C7         69.1984   62.1555   47.0493 Z7         2 LUT      0.069402
    146 C8         69.8051   62.9495   46.1569 Z8         2 LUT     -0.191631
    147 C9         70.4139   62.6028   44.8818 Z9         2 LUT      0.196698
    148 C10        71.3444   63.4885   44.4157 Y1         2 LUT     -0.208611
    149 C11        72.0988   63.4737   43.2445 Y2         2 LUT      0.030784
    150 C12        73.2005   64.2258   43.0499 Y3         2 LUT     -0.220316
    151 C13        74.0788   64.2588   41.8816 Y4         2 LUT      0.215937
    152 C14        75.3118   64.8777   42.1155 Y5         2 LUT     -0.185793
    153 C15        76.4680   65.0254   41.2169 Y6         2 LUT     -0.057835
    154 C16        69.0813   60.2504   49.3645 Y7         2 LUT     -0.405615
    155 C17        69.3163   62.2356   50.7628 Y7         2 LUT     -0.405615
    156 C18        67.3867   64.5745   47.1282 Y9         2 LUT     -0.369639
    157 C19        69.9469   61.3922   44.1955 W1         2 LUT     -0.333362
    158 C20        73.8886   63.5514   40.6049 W2         2 LUT     -0.323439
    159 C21        88.2505   66.1467   35.0858 Z1         2 LUT      0.406104
    160 C22        88.8085   65.7241   33.6771 Z2         2 LUT     -0.404965
    161 C23        89.0362   66.9193   32.7721 Z3         2 LUT      0.391255
    162 O23        89.6958   66.5214   31.5816 S1         2 LUT     -0.528210
    163 C24        87.7098   67.6583   32.5977 W6         2 LUT     -0.258361
    164 C25        86.6589   67.4507   33.4250 Z5         2 LUT      0.133546
    165 C26        86.7507   66.6351   34.7170 W8         2 LUT     -0.147008
    166 C27        85.9717   67.1818   35.9721 Z7         2 LUT      0.023843
    167 C28        84.7052   66.7440   36.4164 Z8         2 LUT     -0.216987
    168 C29        84.0213   67.0863   37.6594 Z9         2 LUT      0.206524
    169 C30        82.8230   66.4988   37.9417 Y1         2 LUT     -0.215556
    170 C31        82.1066   66.6236   39.1534 Y2         2 LUT      0.025142
    171 C32        80.8809   66.0874   39.2718 Y3         2 LUT     -0.212209
    172 C33        80.0434   66.0385   40.5632 Y4         2 LUT      0.240937
    173 C34        78.7248   65.5583   40.5328 Y5         2 LUT     -0.218862
    174 C35        77.7628   65.3840   41.5864 Y6         2 LUT     -0.023547
    175 C36        89.2248   67.0640   35.8903 Y7         2 LUT     -0.393485
    176 C37        88.3968   64.7414   35.7455 Y7         2 LUT     -0.393485
    177 C38        85.2508   68.0496   33.1563 Y9         2 LUT     -0.387526
    178 C39        84.5976   68.1501   38.4902 W1         2 LUT     -0.322618
    179 C40        80.5652   66.5958   41.8784 W2         2 LUT     -0.358472
    180 H403       80.0267   66.3019   42.8193 R7         2 LUT      0.097720
    181 H402       81.6150   66.4301   42.0620 R7         2 LUT      0.097720
    182 H401       80.6207   67.6829   41.8582 R7         2 LUT      0.097720
    183 H393       84.5325   69.0763   37.9691 R4         2 LUT      0.082505
    184 H392       84.3563   68.2981   39.5169 R4         2 LUT      0.082505
    185 H391       85.6509   68.0013   38.5821 R4         2 LUT      0.082505
    186 H383       84.4695   67.3761   32.6728 R1         2 LUT      0.104030
    187 H382       84.8725   68.5595   33.9916 R1         2 LUT      0.104030
    188 H381       85.3777   68.7859   32.3202 R1         2 LUT      0.104030
    189 H373       87.6462   64.0172   35.4663 T4         2 LUT      0.089537
    190 H372       89.4053   64.2916   35.5958 T4         2 LUT      0.089537
    191 H371       88.1303   64.8027   36.8551 T4         2 LUT      0.089537
    192 H363       88.8423   67.1864   36.9016 T4         2 LUT      0.089537
    193 H362       90.1590   66.5608   36.1113 T4         2 LUT      0.089537
    194 H361       89.3966   68.0837   35.4659 T4         2 LUT      0.089537
    195 H222       89.7962   65.2762   33.7650 U2         2 LUT      0.127376
    196 H221       88.0556   65.0317   33.2267 U2         2 LUT      0.127376
    197 H203       74.8546   63.5653   40.0969 R7         2 LUT      0.087068
    198 H202       73.5218   62.5095   40.6822 R7         2 LUT      0.087068
    199 H201       73.1552   64.0173   39.8953 R7         2 LUT      0.087068
    200 H193       70.2863   61.2469   43.2088 R4         2 LUT      0.089716
    201 H192       70.1265   60.4835   44.8414 R4         2 LUT      0.089716
    202 H191       68.8733   61.4065   44.0759 R4         2 LUT      0.089716
    203 H183       66.3917   65.0694   47.2948 R1         2 LUT      0.094572
    204 H182       68.0499   65.4127   47.0486 R1         2 LUT      0.094572
    205 H181       67.3215   64.0391   46.1865 R1         2 LUT      0.094572
    206 H173       70.4526   62.1714   50.6326 T4         2 LUT      0.093752
    207 H172       69.1053   63.3333   50.7537 T4         2 LUT      0.093752
    208 H171       68.9966   61.9082   51.7857 T4         2 LUT      0.093752
    209 H163       70.0632   60.3089   48.9346 T4         2 LUT      0.093752
    210 H162       68.9998   59.6309   50.2366 T4         2 LUT      0.093752
    211 H161       68.4997   59.6517   48.5791 T4         2 LUT      0.093752
    212 HO3        65.9049   62.3290   52.2245 Q1         2 LUT      0.300121
    213 H8         69.9894   63.9898   46.4456 U7         2 LUT      0.080784
    214 H7         69.2149   61.0934   46.8242 U6         2 LUT      0.042190
    215 H42        66.0041   64.7276   49.2616 U5         2 LUT      0.145166
    216 H41        67.4595   64.6115   50.1673 U5         2 LUT      0.145166
    217 H35        77.8066   65.8236   42.6173 T3         2 LUT      0.077919
    218 H34        78.2717   65.2422   39.5277 T2         2 LUT      0.073626
    219 H32        80.5637   65.6252   38.3318 T1         2 LUT      0.092510
    220 H31        82.4942   67.0814   40.0013 U9         2 LUT      0.070048
    221 H30        82.3277   65.8489   37.2191 U8         2 LUT      0.085442
    222 H3         65.3758   62.7847   49.8911 U3         2 LUT     -0.031596
    223 H28        84.0747   66.1944   35.7553 U7         2 LUT      0.084728
    224 H27        86.5685   67.8293   36.6276 U6         2 LUT      0.087291
    225 H26        86.3097   65.7224   34.2648 Q6         2 LUT      0.075325
    226 H24        87.5973   68.3021   31.7106 Q5         2 LUT      0.094482
    227 H23        89.6881   67.7634   33.1751 U3         2 LUT     -0.024869
    228 H22        66.5502   61.3613   49.0101 U2         2 LUT      0.127376
    229 H21        66.8938   60.7460   50.6567 U2         2 LUT      0.127376
    230 H15        76.2813   64.8472   40.1231 T3         2 LUT      0.093200
    231 H14        75.4581   65.2675   43.0826 T2         2 LUT      0.068865
    232 H12        73.4305   64.8919   43.8864 T1         2 LUT      0.095507
    233 H11        71.8205   62.7754   42.4089 U9         2 LUT      0.068930
    234 H10        71.6987   64.3331   44.9974 U8         2 LUT      0.083911
    235 H1         89.2337   65.9566   30.9506 Q1         2 LUT      0.297311
@<TRIPOS>BOND
    1     6     1 1
    2     7     2 1
    3     8     3 1
    4     9     4 1
    5    11     4 1
    6    12     6 1
    7    13     9 1
    8    16     9 1
    9    25     5 1
   10    25    16 1
   11    26    10 1
   12    26    17 1
   13    27    18 1
   14    28    14 1
   15    28    19 1
   16    29    12 1
   17    30    13 1
   18    31    24 1
   19    32     1 1
   20    32    25 1
   21    33    21 1
   22    33    26 1
   23    34    22 1
   24    34    27 1
   25    35    23 1
   26    35    28 1
   27    36    12 1
   28    36    24 1
   29    37    13 1
   30    37    15 1
   31    38    31 1
   32    39    20 1
   33    39    32 1
   34    40     2 1
   35    40    33 1
   36    41     3 1
   37    41    34 1
   38    42     4 1
   39    42    35 1
   40    43    38 1
   41    44     5 1
   42    44    17 1
   43    44    39 1
   44    45    10 1
   45    45    18 1
   46    45    40 1
   47    46    19 1
   48    46    41 1
   49    47    14 1
   50    47    16 1
   51    47    42 1
   52    48    38 1
   53    49    48 1
   54    50    49 1
   55    51    50 1
   56    52    51 1
   57    53    51 1
   58    54    53 1
   59    55    54 1
   60    56    55 1
   61    57    56 1
   62    58    56 1
   63    59    58 1
   64    60    59 1
   65    61    60 1
   66    62    61 1
   67    63    61 1
   68    64    27 1
   69    64    46 1
   70    65     5 1
   71    65    10 1
   72    65    64 1
   73    65    14 1
   74    66    23 1
   75    67    23 1
   76    68    23 1
   77    69    22 1
   78    70    22 1
   79    71    22 1
   80    72    21 1
   81    73    21 1
   82    74    21 1
   83    75    20 1
   84    76    20 1
   85    77    20 1
   86    78    15 1
   87    79    15 1
   88    80    15 1
   89    81     8 1
   90    82     8 1
   91    83     8 1
   92    84     7 1
   93    85     7 1
   94    86     6 1
   95    87     6 1
   96    88     3 1
   97    89     3 1
   98    90     1 1
   99    91     1 1
  100    92    63 1
  101    93    63 1
  102    94    63 1
  103    95    62 1
  104    96    62 1
  105    97    62 1
  106    98    60 1
  107    99    60 1
  108   100    59 1
  109   101    59 1
  110   102    58 1
  111   103    58 1
  112   104    57 1
  113   105    57 1
  114   106    57 1
  115   107    55 1
  116   108    55 1
  117   109    54 1
  118   110    54 1
  119   111    53 1
  120   112    53 1
  121   113    19 1
  122   114    18 1
  123   115    17 1
  124   116     9 1
  125   117     2 1
  126   118    52 1
  127   119    52 1
  128   120    52 1
  129   121    51 1
  130   122    50 1
  131   123    50 1
  132   124    49 1
  133   125    49 1
  134   126    48 1
  135   127    48 1
  136   128    43 1
  137   129    43 1
  138   130    43 1
  139   131    39 1
  140   132    32 1
  141   133    31 1
  142   134    61 1
  143   135    56 1
  144   136    24 1
  145   137    24 1
  146   139   138 1
  147   140   139 1
  148   141   140 1
  149   142   140 1
  150   143   142 1
  151   144   138 1
  152   144   143 1
  153   145   144 1
  154   146   145 1
  155   147   146 1
  156   148   147 1
  157   149   148 1
  158   150   149 1
  159   151   150 1
  160   152   151 1
  161   153   152 1
  162   154   138 1
  163   155   138 1
  164   156   143 1
  165   157   147 1
  166   158   151 1
  167   160   159 1
  168   161   160 1
  169   162   161 1
  170   163   161 1
  171   164   163 1
  172   165   159 1
  173   165   164 1
  174   166   165 1
  175   167   166 1
  176   168   167 1
  177   169   168 1
  178   170   169 1
  179   171   170 1
  180   172   171 1
  181   173   172 1
  182   174   153 1
  183   174   173 1
  184   175   159 1
  185   176   159 1
  186   177   164 1
  187   178   168 1
  188   179   172 1
  189   180   179 1
  190   181   179 1
  191   182   179 1
  192   183   178 1
  193   184   178 1
  194   185   178 1
  195   186   177 1
  196   187   177 1
  197   188   177 1
  198   189   176 1
  199   190   176 1
  200   191   176 1
  201   192   175 1
  202   193   175 1
  203   194   175 1
  204   195   160 1
  205   196   160 1
  206   197   158 1
  207   198   158 1
  208   199   158 1
  209   200   157 1
  210   201   157 1
  211   202   157 1
  212   203   156 1
  213   204   156 1
  214   205   156 1
  215   206   155 1
  216   207   155 1
  217   208   155 1
  218   209   154 1
  219   210   154 1
  220   211   154 1
  221   212   141 1
  222   213   146 1
  223   214   145 1
  224   215   142 1
  225   216   142 1
  226   217   174 1
  227   218   173 1
  228   219   171 1
  229   220   170 1
  230   221   169 1
  231   222   140 1
  232   223   167 1
  233   224   166 1
  234   225   165 1
  235   226   163 1
  236   227   161 1
  237   228   139 1
  238   229   139 1
  239   230   153 1
  240   231   152 1
  241   232   150 1
  242   233   149 1
  243   234   148 1
  244   235   162 1
  245   65    153 1
  246   65    174 1
@<TRIPOS>SUBSTRUCTURE
      1 CLA               1 ****               0 ****  **** 
      2 LUT             138 ****               0 ****  **** 
