@<TRIPOS>MOLECULE
Cpptraj generated mol2 file.
  235   246     2     0     0
SMALL
USER_CHARGES


@<TRIPOS>ATOM
      1 CAA        76.9249   58.0815   33.3727 a2         1 CLA     -0.055900
      2 CAB        76.4615   61.6864   42.5685 c8         1 CLA     -0.148500
      3 CAC        69.8961   57.2752   41.8978 a2         1 CLA     -0.012600
      4 CAD        72.9151   55.3189   34.5041 ck         1 CLA      0.398800
      5 NA         75.7842   58.4235   36.8129 ns         1 CLA     -0.225500
      6 CBA        78.2397   58.0379   32.6393 a2         1 CLA     -0.135000
      7 CBB        77.5029   61.7968   43.4716 c0         1 CLA     -0.395200
      8 CBC        69.9954   55.7309   41.8200 a3         1 CLA     -0.037700
      9 CBD        74.2984   56.0074   34.1351 a1         1 CLA     -0.053900
     10 NB         75.6200   59.7187   39.5148 nm         1 CLA     -0.295700
     11 OBD        72.4280   54.3980   33.8239 o2         1 CLA     -0.494600
     12 CGA        78.9162   56.5892   32.4053 c4         1 CLA      0.827000
     13 CGD        75.2306   54.8774   33.7278 c4         1 CLA      0.655300
     14 ND         73.0061   57.3225   37.3299 nm         1 CLA     -0.291600
     15 CED        75.9392   52.6308   34.1864 a3         1 CLA      0.005400
     16 CHA        74.5764   56.8528   35.4102 cs         1 CLA     -0.123800
     17 CHB        77.5576   59.6033   38.1269 aa         1 CLA     -0.291900
     18 CHC        74.1817   59.9020   41.5406 aa         1 CLA     -0.090400
     19 CHD        71.0526   57.0706   38.9079 aa         1 CLA     -0.052000
     20 CMA        79.2704   57.8107   36.2111 a3         1 CLA     -0.230700
     21 CMB        78.8865   61.3791   40.3186 a3         1 CLA     -0.180800
     22 CMC        72.0326   59.1962   43.5454 a3         1 CLA     -0.134000
     23 CMD        70.0552   55.0165   36.4841 a3         1 CLA     -0.141100
     24 C1         79.9329   54.7294   33.5087 a2         1 CLA      0.023000
     25 C1A        75.7380   57.6607   35.7083 ac         1 CLA     -0.015100
     26 C1B        76.9042   60.0513   39.2502 cr         1 CLA      0.054700
     27 C1C        73.0606   59.1396   41.2110 cn         1 CLA     -0.005600
     28 C1D        71.7753   56.7894   37.6886 ap         1 CLA     -0.047300
     29 O1A        79.0444   55.9772   31.3534 o2         1 CLA     -0.610800
     30 O1D        75.9764   54.9329   32.7910 o2         1 CLA     -0.558200
     31 C2         80.4708   54.3771   34.7972 c8         1 CLA     -0.325100
     32 C2A        77.0262   57.6352   34.8984 a1         1 CLA      0.098600
     33 C2B        77.4561   60.9179   40.2973 cb         1 CLA      0.088500
     34 C2C        72.0467   58.7400   42.1092 cb         1 CLA      0.053700
     35 C2D        71.3565   55.8414   36.5723 cb         1 CLA      0.058900
     36 O2A        79.2724   56.0209   33.5845 o1         1 CLA     -0.437200
     37 O2D        75.1340   53.7826   34.5354 o1         1 CLA     -0.357600
     38 C3         81.1115   53.1903   35.0777 c5         1 CLA      0.031200
     39 C3A        77.9731   58.5481   35.7737 a1         1 CLA      0.166800
     40 C3B        76.4937   61.0274   41.2810 cb         1 CLA      0.035000
     41 C3C        71.0930   57.9830   41.3669 cb         1 CLA     -0.089900
     42 C3D        72.3532   55.9201   35.6700 cb         1 CLA     -0.035900
     43 C4         80.3493   51.9418   35.5440 a3         1 CLA     -0.053300
     44 C4A        77.0686   58.9204   36.9211 ac         1 CLA      0.001800
     45 C4B        75.3670   60.2475   40.7574 cn         1 CLA     -0.020900
     46 C4C        71.6011   57.8914   40.0054 cr         1 CLA     -0.044400
     47 C4D        73.3554   56.8070   36.2142 c6         1 CLA     -0.046000
     48 C5         82.5694   53.0199   35.0745 a2         1 CLA     -0.070400
     49 C6         83.4191   54.2156   35.4460 a2         1 CLA      0.043900
     50 C7         83.4186   54.4991   36.9105 a2         1 CLA     -0.150000
     51 C8         83.7503   55.9384   37.2711 a1         1 CLA      0.064200
     52 C9         85.1532   56.3690   36.6722 a3         1 CLA     -0.259300
     53 C10        83.6832   56.0491   38.8097 a2         1 CLA     -0.071900
     54 C11        82.2176   56.1111   39.2829 a2         1 CLA      0.014500
     55 C12        82.2544   56.7273   40.6963 a2         1 CLA     -0.112100
     56 C13        80.9370   56.5464   41.4626 a1         1 CLA      0.089200
     57 C14        79.8553   57.5970   41.0590 a3         1 CLA     -0.239100
     58 C15        81.1398   56.4165   42.9439 a2         1 CLA     -0.102200
     59 C16        81.4732   57.7065   43.8138 a2         1 CLA      0.023900
     60 C17        82.9090   58.3568   43.6972 a2         1 CLA     -0.105700
     61 C18        83.4450   59.4220   44.8130 a1         1 CLA      0.206800
     62 C19        82.4628   60.6174   44.9186 a3         1 CLA     -0.280100
     63 C20        83.4639   58.6436   46.1705 a3         1 CLA     -0.280100
     64 NC         72.8540   58.5892   39.9496 nx         1 CLA     -0.309200
     65 MG         74.2521   58.6331   38.3246 mg         1 CLA      0.895000
     66 HMD3       69.2413   55.6622   36.2285 dc         1 CLA      0.064300
     67 HMD2       70.0830   54.1531   35.7918 dc         1 CLA      0.064300
     68 HMD1       69.9103   54.5548   37.4227 dc         1 CLA      0.064300
     69 HMC3       72.8916   58.8139   44.0195 dc         1 CLA      0.052100
     70 HMC2       71.9663   60.3077   43.6058 dc         1 CLA      0.052100
     71 HMC1       71.1685   58.8214   43.9921 dc         1 CLA      0.052100
     72 HMB3       79.4587   60.6022   40.7650 dc         1 CLA      0.063600
     73 HMB2       79.2136   61.6645   39.2943 dc         1 CLA      0.063600
     74 HMB1       78.8444   62.3417   40.8912 dc         1 CLA      0.063600
     75 HMA3       79.1165   56.8431   36.7267 dc         1 CLA      0.058300
     76 HMA2       79.8780   57.5426   35.3669 dc         1 CLA      0.058300
     77 HMA1       79.8344   58.5606   36.7668 dc         1 CLA      0.058300
     78 HED3       75.7029   51.7616   34.7934 dc         1 CLA      0.079300
     79 HED2       75.7593   52.3412   33.1811 dc         1 CLA      0.079300
     80 HED1       76.9658   52.8983   34.3558 dc         1 CLA      0.079300
     81 HBC3       70.0341   55.5089   40.7877 dc         1 CLA      0.016300
     82 HBC2       70.8996   55.4448   42.3331 dc         1 CLA      0.016300
     83 HBC1       69.0694   55.2780   42.3221 dc         1 CLA      0.016300
     84 HBB2       77.3160   62.2244   44.4883 da         1 CLA      0.183000
     85 HBB1       78.4547   61.2142   43.2757 da         1 CLA      0.183000
     86 HBA2       78.0875   58.3910   31.6313 dc         1 CLA      0.029400
     87 HBA1       78.9237   58.6843   33.1590 dc         1 CLA      0.029400
     88 HAC2       69.8241   57.5151   42.9836 dc         1 CLA      0.029300
     89 HAC1       69.0529   57.6794   41.3944 dc         1 CLA      0.029300
     90 HAA2       76.3064   57.4445   32.8067 dc         1 CLA      0.028700
     91 HAA1       76.5294   59.0724   33.4554 dc         1 CLA      0.028700
     92 H203       83.9719   57.6525   46.0350 dc         1 CLA      0.065600
     93 H202       83.9626   59.2611   46.9065 dc         1 CLA      0.065600
     94 H201       82.4361   58.4721   46.4314 dc         1 CLA      0.065600
     95 H193       81.4837   60.1354   44.9948 dc         1 CLA      0.065600
     96 H192       82.7776   61.3043   45.7707 dc         1 CLA      0.065600
     97 H191       82.4640   61.1140   43.9209 dc         1 CLA      0.065600
     98 H172       83.6100   57.5282   43.7147 dc         1 CLA      0.027600
     99 H171       83.0062   58.8418   42.7430 dc         1 CLA      0.027600
    100 H162       80.7401   58.4402   43.3588 dc         1 CLA      0.002900
    101 H161       81.1192   57.5051   44.8768 dc         1 CLA      0.002900
    102 H152       80.2076   56.0633   43.3142 dc         1 CLA      0.029100
    103 H151       81.9613   55.7017   43.1021 dc         1 CLA      0.029100
    104 H143       80.3361   58.6210   41.1291 dc         1 CLA      0.063600
    105 H142       79.6272   57.4231   39.9748 dc         1 CLA      0.063600
    106 H141       79.0419   57.5662   41.7357 dc         1 CLA      0.063600
    107 H122       83.0849   56.2149   41.1906 dc         1 CLA      0.032500
    108 H121       82.4994   57.8194   40.5924 dc         1 CLA      0.032500
    109 H112       81.6236   56.7780   38.6422 dc         1 CLA      0.006600
    110 H111       81.7837   55.1090   39.3956 dc         1 CLA      0.006600
    111 H102       84.3920   55.3936   39.3686 dc         1 CLA      0.024100
    112 H101       83.9748   57.0364   39.0301 dc         1 CLA      0.024100
    113 HHD        70.0350   56.6481   38.9195 da         1 CLA      0.174300
    114 HHC        74.3193   60.0861   42.5820 da         1 CLA      0.136800
    115 HHB        78.6498   59.8568   38.1793 da         1 CLA      0.138300
    116 HBD        74.0325   56.5857   33.3050 dc         1 CLA      0.107700
    117 HAB        75.4821   62.1180   42.8277 da         1 CLA      0.155200
    118 H93        85.3145   57.3457   37.1282 dc         1 CLA      0.069500
    119 H92        85.8816   55.7155   37.1563 dc         1 CLA      0.069500
    120 H91        85.1586   56.4747   35.5730 dc         1 CLA      0.069500
    121 H8         82.9454   56.6002   36.8253 dc         1 CLA      0.029300
    122 H72        82.4317   54.2434   37.3139 dc         1 CLA      0.044400
    123 H71        84.1383   53.7547   37.3507 dc         1 CLA      0.044400
    124 H62        84.5143   53.9251   35.1807 dc         1 CLA      0.015600
    125 H61        83.0632   55.0622   34.8821 dc         1 CLA      0.015600
    126 H52        82.9520   52.1357   35.6121 dc         1 CLA      0.033200
    127 H51        82.7805   52.8977   34.0777 dc         1 CLA      0.033200
    128 H43        79.3268   52.1640   35.3453 dc         1 CLA      0.037000
    129 H42        80.6632   51.0631   35.0274 dc         1 CLA      0.037000
    130 H41        80.4463   51.8324   36.5995 dc         1 CLA      0.037000
    131 H3A        78.1671   59.5150   35.2990 dc         1 CLA      0.041100
    132 H2A        77.2750   56.6104   34.9729 dc         1 CLA      0.083100
    133 H2         80.3488   55.0653   35.6483 da         1 CLA      0.180900
    134 H18        84.4838   59.6752   44.5505 dc         1 CLA     -0.003900
    135 H13        80.5594   55.5511   41.1112 dc         1 CLA      0.019700
    136 H12        79.3419   53.8922   33.0691 dc         1 CLA      0.120400
    137 H11        80.8039   54.7198   32.8769 dc         1 CLA      0.120400
    138 C1         67.0525   61.4937   49.8651 Z1         2 LUT      0.509236
    139 C2         67.0029   62.7643   50.8213 Z2         2 LUT     -0.434695
    140 C3         65.6997   63.4703   50.7413 Z3         2 LUT      0.437453
    141 O3         65.9375   64.7987   51.2587 S1         2 LUT     -0.547129
    142 C4         65.1640   63.5047   49.3146 Z4         2 LUT     -0.468603
    143 C5         65.8667   62.8300   48.1745 Z5         2 LUT      0.279246
    144 C6         66.7844   61.8713   48.3984 Z6         2 LUT     -0.305473
    145 C7         67.8328   61.3653   47.4616 Z7         2 LUT      0.069402
    146 C8         68.4828   62.0532   46.4478 Z8         2 LUT     -0.191631
    147 C9         68.9289   61.6097   45.0763 Z9         2 LUT      0.196698
    148 C10        69.8044   62.4664   44.4277 Y1         2 LUT     -0.208611
    149 C11        70.4641   62.3827   43.1200 Y2         2 LUT      0.030784
    150 C12        71.5954   63.0647   42.8355 Y3         2 LUT     -0.220316
    151 C13        72.3581   63.0533   41.6344 Y4         2 LUT      0.215937
    152 C14        73.5822   63.6897   41.6870 Y5         2 LUT     -0.185793
    153 C15        74.6167   63.8531   40.7105 Y6         2 LUT     -0.057835
    154 C16        65.9343   60.5709   50.3769 Y7         2 LUT     -0.405615
    155 C17        68.3052   60.7260   50.1614 Y7         2 LUT     -0.405615
    156 C18        65.6029   63.5996   46.8719 Y9         2 LUT     -0.369639
    157 C19        68.3310   60.3051   44.4403 W1         2 LUT     -0.333362
    158 C20        71.8150   62.3968   40.3347 W2         2 LUT     -0.323439
    159 C21        85.8661   64.5726   34.6966 Z1         2 LUT      0.406104
    160 C22        86.2987   63.8431   33.3902 Z2         2 LUT     -0.404965
    161 C23        86.5580   64.6680   32.1991 Z3         2 LUT      0.391255
    162 O23        86.7529   63.6924   31.1856 S1         2 LUT     -0.528210
    163 C24        85.3199   65.5425   31.9435 W6         2 LUT     -0.258361
    164 C25        84.4371   65.8208   32.8940 Z5         2 LUT      0.133546
    165 C26        84.5022   65.2301   34.3041 W8         2 LUT     -0.147008
    166 C27        83.8525   66.0849   35.4022 Z7         2 LUT      0.023843
    167 C28        82.5876   65.9803   35.8421 Z8         2 LUT     -0.216987
    168 C29        81.9624   66.4286   37.1131 Z9         2 LUT      0.206524
    169 C30        80.7355   65.9480   37.4051 Y1         2 LUT     -0.215556
    170 C31        79.8959   66.0944   38.5198 Y2         2 LUT      0.025142
    171 C32        78.7748   65.3805   38.7964 Y3         2 LUT     -0.212209
    172 C33        77.9314   65.4102   39.9578 Y4         2 LUT      0.240937
    173 C34        76.7783   64.6022   39.8726 Y5         2 LUT     -0.218862
    174 C35        75.8034   64.4925   40.8704 Y6         2 LUT     -0.023547
    175 C36        87.0849   65.5271   35.1352 Y7         2 LUT     -0.393485
    176 C37        85.6895   63.3720   35.7633 Y7         2 LUT     -0.393485
    177 C38        83.1774   66.4321   32.4747 Y9         2 LUT     -0.387526
    178 C39        82.8084   67.4528   37.9239 W1         2 LUT     -0.322618
    179 C40        78.3474   66.3381   41.0992 W2         2 LUT     -0.358472
    180 H403       79.4640   66.3179   41.2848 R7         2 LUT      0.097720
    181 H402       78.0423   67.4420   41.0004 R7         2 LUT      0.097720
    182 H401       77.7074   66.1031   42.0176 R7         2 LUT      0.097720
    183 H393       83.5330   67.0651   38.6453 R4         2 LUT      0.082505
    184 H392       83.3791   68.0733   37.2306 R4         2 LUT      0.082505
    185 H391       82.0874   68.1109   38.4345 R4         2 LUT      0.082505
    186 H383       82.3171   65.7116   32.2416 R1         2 LUT      0.104030
    187 H382       82.8348   67.0925   33.2879 R1         2 LUT      0.104030
    188 H381       83.4422   66.9811   31.6092 R1         2 LUT      0.104030
    189 H373       85.4256   63.6853   36.7992 T4         2 LUT      0.089537
    190 H372       84.8149   62.8144   35.4990 T4         2 LUT      0.089537
    191 H371       86.5137   62.6123   35.7657 T4         2 LUT      0.089537
    192 H363       87.2432   66.4039   34.5410 T4         2 LUT      0.089537
    193 H362       86.9069   65.8565   36.1624 T4         2 LUT      0.089537
    194 H361       87.9458   64.9007   35.1191 T4         2 LUT      0.089537
    195 H222       87.1295   63.2320   33.5632 U2         2 LUT      0.127376
    196 H221       85.5039   63.0449   33.2834 U2         2 LUT      0.127376
    197 H203       70.7770   62.5832   40.0675 R7         2 LUT      0.087068
    198 H202       72.3365   62.6650   39.4651 R7         2 LUT      0.087068
    199 H201       71.9186   61.2755   40.4704 R7         2 LUT      0.087068
    200 H193       68.9936   59.4762   44.5894 R4         2 LUT      0.089716
    201 H192       67.3488   60.0202   44.7637 R4         2 LUT      0.089716
    202 H191       68.1268   60.4024   43.3536 R4         2 LUT      0.089716
    203 H183       66.4234   64.2799   46.6999 R1         2 LUT      0.094572
    204 H182       65.7114   62.8193   46.0565 R1         2 LUT      0.094572
    205 H181       64.5517   64.0227   47.0619 R1         2 LUT      0.094572
    206 H173       69.1582   61.3528   49.9482 T4         2 LUT      0.093752
    207 H172       68.3247   60.3933   51.2153 T4         2 LUT      0.093752
    208 H171       68.4567   59.8957   49.4122 T4         2 LUT      0.093752
    209 H163       65.9883   60.5468   51.4681 T4         2 LUT      0.093752
    210 H162       64.9404   60.9414   50.1372 T4         2 LUT      0.093752
    211 H161       66.0394   59.6101   49.8582 T4         2 LUT      0.093752
    212 HO3        65.1920   65.1148   51.8148 Q1         2 LUT      0.300121
    213 H8         68.2434   63.0564   46.6585 U7         2 LUT      0.080784
    214 H7         67.7806   60.2362   47.2994 U6         2 LUT      0.042190
    215 H42        64.0952   63.0783   49.3272 U5         2 LUT      0.145166
    216 H41        65.0770   64.5551   49.0063 U5         2 LUT      0.145166
    217 H35        75.9845   65.0278   41.7952 T3         2 LUT      0.077919
    218 H34        76.7374   64.0117   38.9728 T2         2 LUT      0.073626
    219 H32        78.4930   64.6514   38.0272 T1         2 LUT      0.092510
    220 H31        80.2497   66.9075   39.1709 U9         2 LUT      0.070048
    221 H30        80.2503   65.2137   36.7336 U8         2 LUT      0.085442
    222 H3         64.9915   62.8342   51.2662 U3         2 LUT     -0.031596
    223 H28        82.0041   65.4404   35.1675 U7         2 LUT      0.084728
    224 H27        84.4990   66.6912   36.0136 U6         2 LUT      0.087291
    225 H26        83.8340   64.3568   34.2706 Q6         2 LUT      0.075325
    226 H24        85.2850   65.8136   30.9396 Q5         2 LUT      0.094482
    227 H23        87.4241   65.3750   32.4323 U3         2 LUT     -0.024869
    228 H22        67.1545   62.6429   51.9141 U2         2 LUT      0.127376
    229 H21        67.7450   63.3856   50.3910 U2         2 LUT      0.127376
    230 H15        74.4840   63.3584   39.7422 T3         2 LUT      0.093200
    231 H14        73.7496   64.1445   42.6658 T2         2 LUT      0.068865
    232 H12        72.0177   63.6767   43.6144 T1         2 LUT      0.095507
    233 H11        70.1806   61.6559   42.3879 U9         2 LUT      0.068930
    234 H10        69.9694   63.3340   44.9676 U8         2 LUT      0.083911
    235 H1         86.8940   63.9853   30.2694 Q1         2 LUT      0.297311
@<TRIPOS>BOND
    1     6     1 1
    2     7     2 1
    3     8     3 1
    4     9     4 1
    5    11     4 1
    6    12     6 1
    7    13     9 1
    8    16     9 1
    9    25     5 1
   10    25    16 1
   11    26    10 1
   12    26    17 1
   13    27    18 1
   14    28    14 1
   15    28    19 1
   16    29    12 1
   17    30    13 1
   18    31    24 1
   19    32     1 1
   20    32    25 1
   21    33    21 1
   22    33    26 1
   23    34    22 1
   24    34    27 1
   25    35    23 1
   26    35    28 1
   27    36    12 1
   28    36    24 1
   29    37    13 1
   30    37    15 1
   31    38    31 1
   32    39    20 1
   33    39    32 1
   34    40     2 1
   35    40    33 1
   36    41     3 1
   37    41    34 1
   38    42     4 1
   39    42    35 1
   40    43    38 1
   41    44     5 1
   42    44    17 1
   43    44    39 1
   44    45    10 1
   45    45    18 1
   46    45    40 1
   47    46    19 1
   48    46    41 1
   49    47    14 1
   50    47    16 1
   51    47    42 1
   52    48    38 1
   53    49    48 1
   54    50    49 1
   55    51    50 1
   56    52    51 1
   57    53    51 1
   58    54    53 1
   59    55    54 1
   60    56    55 1
   61    57    56 1
   62    58    56 1
   63    59    58 1
   64    60    59 1
   65    61    60 1
   66    62    61 1
   67    63    61 1
   68    64    27 1
   69    64    46 1
   70    65     5 1
   71    65    10 1
   72    65    64 1
   73    65    14 1
   74    66    23 1
   75    67    23 1
   76    68    23 1
   77    69    22 1
   78    70    22 1
   79    71    22 1
   80    72    21 1
   81    73    21 1
   82    74    21 1
   83    75    20 1
   84    76    20 1
   85    77    20 1
   86    78    15 1
   87    79    15 1
   88    80    15 1
   89    81     8 1
   90    82     8 1
   91    83     8 1
   92    84     7 1
   93    85     7 1
   94    86     6 1
   95    87     6 1
   96    88     3 1
   97    89     3 1
   98    90     1 1
   99    91     1 1
  100    92    63 1
  101    93    63 1
  102    94    63 1
  103    95    62 1
  104    96    62 1
  105    97    62 1
  106    98    60 1
  107    99    60 1
  108   100    59 1
  109   101    59 1
  110   102    58 1
  111   103    58 1
  112   104    57 1
  113   105    57 1
  114   106    57 1
  115   107    55 1
  116   108    55 1
  117   109    54 1
  118   110    54 1
  119   111    53 1
  120   112    53 1
  121   113    19 1
  122   114    18 1
  123   115    17 1
  124   116     9 1
  125   117     2 1
  126   118    52 1
  127   119    52 1
  128   120    52 1
  129   121    51 1
  130   122    50 1
  131   123    50 1
  132   124    49 1
  133   125    49 1
  134   126    48 1
  135   127    48 1
  136   128    43 1
  137   129    43 1
  138   130    43 1
  139   131    39 1
  140   132    32 1
  141   133    31 1
  142   134    61 1
  143   135    56 1
  144   136    24 1
  145   137    24 1
  146   139   138 1
  147   140   139 1
  148   141   140 1
  149   142   140 1
  150   143   142 1
  151   144   138 1
  152   144   143 1
  153   145   144 1
  154   146   145 1
  155   147   146 1
  156   148   147 1
  157   149   148 1
  158   150   149 1
  159   151   150 1
  160   152   151 1
  161   153   152 1
  162   154   138 1
  163   155   138 1
  164   156   143 1
  165   157   147 1
  166   158   151 1
  167   160   159 1
  168   161   160 1
  169   162   161 1
  170   163   161 1
  171   164   163 1
  172   165   159 1
  173   165   164 1
  174   166   165 1
  175   167   166 1
  176   168   167 1
  177   169   168 1
  178   170   169 1
  179   171   170 1
  180   172   171 1
  181   173   172 1
  182   174   153 1
  183   174   173 1
  184   175   159 1
  185   176   159 1
  186   177   164 1
  187   178   168 1
  188   179   172 1
  189   180   179 1
  190   181   179 1
  191   182   179 1
  192   183   178 1
  193   184   178 1
  194   185   178 1
  195   186   177 1
  196   187   177 1
  197   188   177 1
  198   189   176 1
  199   190   176 1
  200   191   176 1
  201   192   175 1
  202   193   175 1
  203   194   175 1
  204   195   160 1
  205   196   160 1
  206   197   158 1
  207   198   158 1
  208   199   158 1
  209   200   157 1
  210   201   157 1
  211   202   157 1
  212   203   156 1
  213   204   156 1
  214   205   156 1
  215   206   155 1
  216   207   155 1
  217   208   155 1
  218   209   154 1
  219   210   154 1
  220   211   154 1
  221   212   141 1
  222   213   146 1
  223   214   145 1
  224   215   142 1
  225   216   142 1
  226   217   174 1
  227   218   173 1
  228   219   171 1
  229   220   170 1
  230   221   169 1
  231   222   140 1
  232   223   167 1
  233   224   166 1
  234   225   165 1
  235   226   163 1
  236   227   161 1
  237   228   139 1
  238   229   139 1
  239   230   153 1
  240   231   152 1
  241   232   150 1
  242   233   149 1
  243   234   148 1
  244   235   162 1
  245   65    153 1
  246   65    174 1
@<TRIPOS>SUBSTRUCTURE
      1 CLA               1 ****               0 ****  **** 
      2 LUT             138 ****               0 ****  **** 
