@<TRIPOS>MOLECULE
Cpptraj generated mol2 file.
  235   246     2     0     0
SMALL
USER_CHARGES


@<TRIPOS>ATOM
      1 CAA        78.1700   58.8869   35.0505 a2         1 CLA     -0.055900
      2 CAB        77.5803   62.6417   43.9002 c8         1 CLA     -0.148500
      3 CAC        70.9765   57.9890   43.2718 a2         1 CLA     -0.012600
      4 CAD        74.0869   56.0019   35.9655 ck         1 CLA      0.398800
      5 NA         76.8809   59.3669   38.2999 ns         1 CLA     -0.225500
      6 CBA        79.3979   58.8180   34.1586 a2         1 CLA     -0.135000
      7 CBB        76.4954   63.2526   44.4944 c0         1 CLA     -0.395200
      8 CBC        71.1400   56.5035   43.3015 a3         1 CLA     -0.037700
      9 CBD        75.4699   56.6988   35.7095 a1         1 CLA     -0.053900
     10 NB         76.5369   60.7572   40.8671 nm         1 CLA     -0.295700
     11 OBD        73.5638   55.1462   35.1757 o2         1 CLA     -0.494600
     12 CGA        79.9785   57.4125   33.9120 c4         1 CLA      0.827000
     13 CGD        76.5316   55.6322   35.6200 c4         1 CLA      0.655300
     14 ND         74.1337   58.1897   38.7526 nm         1 CLA     -0.291600
     15 CED        77.2347   53.4885   36.4174 a3         1 CLA      0.005400
     16 CHA        75.7120   57.7026   36.8927 cs         1 CLA     -0.123800
     17 CHB        78.4873   60.7656   39.4024 aa         1 CLA     -0.291900
     18 CHC        75.1937   60.8113   42.9662 aa         1 CLA     -0.090400
     19 CHD        72.2405   58.0029   40.2580 aa         1 CLA     -0.052000
     20 CMA        80.4517   58.7584   38.1697 a3         1 CLA     -0.230700
     21 CMB        79.7531   62.5956   41.4865 a3         1 CLA     -0.180800
     22 CMC        72.8499   60.0021   44.9456 a3         1 CLA     -0.134000
     23 CMD        71.3055   55.9208   38.0300 a3         1 CLA     -0.141100
     24 C1         80.8584   55.3983   34.9114 a2         1 CLA      0.023000
     25 C1A        76.8571   58.4641   37.2540 ac         1 CLA     -0.015100
     26 C1B        77.7741   61.1277   40.5255 cr         1 CLA      0.054700
     27 C1C        74.1650   59.9710   42.6652 cn         1 CLA     -0.005600
     28 C1D        72.9424   57.6729   39.0806 ap         1 CLA     -0.047300
     29 O1A        79.7146   56.7738   32.9234 o2         1 CLA     -0.610800
     30 O1D        77.3121   55.4555   34.6669 o2         1 CLA     -0.558200
     31 C2         81.3327   55.1261   36.3105 c8         1 CLA     -0.325100
     32 C2A        78.2398   58.4793   36.5040 a1         1 CLA      0.098600
     33 C2B        78.3476   61.9124   41.5599 cb         1 CLA      0.088500
     34 C2C        72.9994   59.6420   43.5169 cb         1 CLA      0.053700
     35 C2D        72.4967   56.7004   38.0569 cb         1 CLA      0.058900
     36 O2A        80.7500   56.9176   34.9635 o1         1 CLA     -0.437200
     37 O2D        76.2627   54.6485   36.5570 o1         1 CLA     -0.357600
     38 C3         82.0696   54.0687   36.7637 c5         1 CLA      0.031200
     39 C3A        79.1620   59.3346   37.4913 a1         1 CLA      0.166800
     40 C3B        77.3957   61.9441   42.6164 cb         1 CLA      0.035000
     41 C3C        72.1695   58.7880   42.7832 cb         1 CLA     -0.089900
     42 C3D        73.5813   56.6788   37.1812 cb         1 CLA     -0.035900
     43 C4         81.4178   52.8653   37.3970 a3         1 CLA     -0.053300
     44 C4A        78.1577   59.8637   38.4359 ac         1 CLA      0.001800
     45 C4B        76.2758   61.1696   42.1386 cn         1 CLA     -0.020900
     46 C4C        72.7767   58.6841   41.3862 cr         1 CLA     -0.044400
     47 C4D        74.5321   57.6147   37.6409 c6         1 CLA     -0.046000
     48 C5         83.6652   54.0091   36.6595 a2         1 CLA     -0.070400
     49 C6         84.3539   55.3573   36.7511 a2         1 CLA      0.043900
     50 C7         84.5228   55.8664   38.2281 a2         1 CLA     -0.150000
     51 C8         85.1285   57.3221   38.4024 a1         1 CLA      0.064200
     52 C9         86.6359   57.1623   38.0149 a3         1 CLA     -0.259300
     53 C10        84.9778   57.8735   39.7751 a2         1 CLA     -0.071900
     54 C11        83.4752   58.0548   40.2455 a2         1 CLA      0.014500
     55 C12        83.4195   58.9852   41.4805 a2         1 CLA     -0.112100
     56 C13        84.5417   58.8601   42.5897 a1         1 CLA      0.089200
     57 C14        84.2768   57.5611   43.3881 a3         1 CLA     -0.239100
     58 C15        84.6504   60.0668   43.5394 a2         1 CLA     -0.102200
     59 C16        83.4259   60.4363   44.3320 a2         1 CLA      0.023900
     60 C17        83.7355   61.6562   45.2443 a2         1 CLA     -0.105700
     61 C18        82.5633   61.9796   46.1620 a1         1 CLA      0.206800
     62 C19        83.0500   62.9204   47.3414 a3         1 CLA     -0.280100
     63 C20        81.3121   62.4986   45.5787 a3         1 CLA     -0.280100
     64 NC         73.9514   59.4817   41.3749 nx         1 CLA     -0.309200
     65 MG         75.3561   59.6656   39.7393 mg         1 CLA      0.895000
     66 HMD3       71.5043   55.0815   37.3757 dc         1 CLA      0.064300
     67 HMD2       70.9739   55.6795   39.0293 dc         1 CLA      0.064300
     68 HMD1       70.5297   56.4946   37.6034 dc         1 CLA      0.064300
     69 HMC3       73.7896   59.8172   45.4309 dc         1 CLA      0.052100
     70 HMC2       72.6433   61.0912   45.0000 dc         1 CLA      0.052100
     71 HMC1       72.0432   59.3449   45.3496 dc         1 CLA      0.052100
     72 HMB3       80.5662   61.8848   41.7074 dc         1 CLA      0.063600
     73 HMB2       79.9506   63.0478   40.5133 dc         1 CLA      0.063600
     74 HMB1       79.7451   63.3517   42.2879 dc         1 CLA      0.063600
     75 HMA3       80.1218   57.7905   38.4570 dc         1 CLA      0.058300
     76 HMA2       81.1972   58.7298   37.3449 dc         1 CLA      0.058300
     77 HMA1       80.8114   59.4053   38.9881 dc         1 CLA      0.058300
     78 HED3       77.1351   52.7599   35.6141 dc         1 CLA      0.079300
     79 HED2       78.2677   53.7589   36.6541 dc         1 CLA      0.079300
     80 HED1       76.8276   52.8372   37.2932 dc         1 CLA      0.079300
     81 HBC3       71.6100   56.1636   42.4114 dc         1 CLA      0.016300
     82 HBC2       71.6610   56.4100   44.2404 dc         1 CLA      0.016300
     83 HBC1       70.1669   56.0333   43.3807 dc         1 CLA      0.016300
     84 HBB2       76.5693   63.8182   45.4159 da         1 CLA      0.183000
     85 HBB1       75.4706   63.2567   44.0117 da         1 CLA      0.183000
     86 HBA2       79.0394   59.1241   33.2072 dc         1 CLA      0.029400
     87 HBA1       80.1432   59.5470   34.5489 dc         1 CLA      0.029400
     88 HAC2       70.6981   58.3019   44.2506 dc         1 CLA      0.029300
     89 HAC1       70.1855   58.0625   42.5904 dc         1 CLA      0.029300
     90 HAA2       77.4634   58.1753   34.6584 dc         1 CLA      0.028700
     91 HAA1       77.7071   59.9195   34.9166 dc         1 CLA      0.028700
     92 H203       81.5419   63.3029   44.8524 dc         1 CLA      0.065600
     93 H202       80.9047   61.6010   45.0520 dc         1 CLA      0.065600
     94 H201       80.5369   62.7853   46.2111 dc         1 CLA      0.065600
     95 H193       83.5778   63.8455   47.1077 dc         1 CLA      0.065600
     96 H192       82.2253   63.1163   48.0297 dc         1 CLA      0.065600
     97 H191       83.7057   62.2766   48.0009 dc         1 CLA      0.065600
     98 H172       84.5660   61.3291   45.8162 dc         1 CLA      0.027600
     99 H171       83.9072   62.5259   44.6365 dc         1 CLA      0.027600
    100 H162       82.6479   60.7918   43.6299 dc         1 CLA      0.002900
    101 H161       83.0345   59.6553   44.8816 dc         1 CLA      0.002900
    102 H152       85.3395   59.7757   44.3521 dc         1 CLA      0.029100
    103 H151       85.0789   60.9772   43.0513 dc         1 CLA      0.029100
    104 H143       84.3022   56.6913   42.7700 dc         1 CLA      0.063600
    105 H142       85.0738   57.4589   44.1464 dc         1 CLA      0.063600
    106 H141       83.3529   57.6070   43.7920 dc         1 CLA      0.063600
    107 H122       83.4222   59.9624   41.1097 dc         1 CLA      0.032500
    108 H121       82.3538   59.0074   41.7490 dc         1 CLA      0.032500
    109 H112       82.8266   58.3577   39.4587 dc         1 CLA      0.006600
    110 H111       83.0321   57.0756   40.4169 dc         1 CLA      0.006600
    111 H102       85.5260   57.2470   40.5296 dc         1 CLA      0.024100
    112 H101       85.5101   58.8159   39.9738 dc         1 CLA      0.024100
    113 HHD        71.4002   57.3800   40.5298 da         1 CLA      0.174300
    114 HHC        75.1139   61.2955   43.8832 da         1 CLA      0.136800
    115 HHB        79.5082   61.1113   39.3164 da         1 CLA      0.138300
    116 HBD        75.3042   57.2283   34.7756 dc         1 CLA      0.107700
    117 HAB        78.5529   62.9202   44.3158 da         1 CLA      0.155200
    118 H93        87.0800   56.6624   38.8510 dc         1 CLA      0.069500
    119 H92        86.7409   56.6301   36.9872 dc         1 CLA      0.069500
    120 H91        87.0327   58.2058   37.8026 dc         1 CLA      0.069500
    121 H8         84.7045   57.8831   37.6034 dc         1 CLA      0.029300
    122 H72        83.5458   55.7969   38.7033 dc         1 CLA      0.044400
    123 H71        85.1583   55.1412   38.7905 dc         1 CLA      0.044400
    124 H62        85.2795   55.1400   36.2641 dc         1 CLA      0.015600
    125 H61        83.8204   56.0801   36.1488 dc         1 CLA      0.015600
    126 H52        84.0358   53.3495   37.5058 dc         1 CLA      0.033200
    127 H51        83.8956   53.6073   35.6454 dc         1 CLA      0.033200
    128 H43        81.9450   52.6527   38.2780 dc         1 CLA      0.037000
    129 H42        80.3056   53.0171   37.5260 dc         1 CLA      0.037000
    130 H41        81.5144   52.0595   36.6856 dc         1 CLA      0.037000
    131 H3A        79.4203   60.2662   36.9081 dc         1 CLA      0.041100
    132 H2A        78.5060   57.4278   36.4916 dc         1 CLA      0.083100
    133 H2         81.1405   55.8012   37.1299 da         1 CLA      0.180900
    134 H18        82.3038   61.0704   46.7414 dc         1 CLA     -0.003900
    135 H13        85.5270   58.7502   42.1453 dc         1 CLA      0.019700
    136 H12        79.8901   54.8638   34.8355 dc         1 CLA      0.120400
    137 H11        81.6270   55.0403   34.1719 dc         1 CLA      0.120400
    138 C1         67.6814   61.7736   50.2851 Z1         2 LUT      0.509236
    139 C2         66.3085   61.5659   50.9406 Z2         2 LUT     -0.434695
    140 C3         65.4173   62.6893   51.3138 Z3         2 LUT      0.437453
    141 O3         65.2231   62.7589   52.7514 S1         2 LUT     -0.547129
    142 C4         65.7973   64.0023   50.5667 Z4         2 LUT     -0.468603
    143 C5         66.5683   63.8018   49.3001 Z5         2 LUT      0.279246
    144 C6         67.5095   62.8653   49.2116 Z6         2 LUT     -0.305473
    145 C7         67.8892   62.3695   47.8978 Z7         2 LUT      0.069402
    146 C8         69.0070   62.7422   47.2725 Z8         2 LUT     -0.191631
    147 C9         69.4763   62.3179   45.9784 Z9         2 LUT      0.196698
    148 C10        70.3663   63.0858   45.2988 Y1         2 LUT     -0.208611
    149 C11        70.8342   62.9080   43.9621 Y2         2 LUT      0.030784
    150 C12        71.9148   63.6710   43.5714 Y3         2 LUT     -0.220316
    151 C13        72.6854   63.5625   42.3357 Y4         2 LUT      0.215937
    152 C14        73.8044   64.3405   42.1898 Y5         2 LUT     -0.185793
    153 C15        74.8621   64.3791   41.2433 Y6         2 LUT     -0.057835
    154 C16        68.0348   60.2433   49.9047 Y7         2 LUT     -0.405615
    155 C17        68.6540   62.1669   51.4489 Y7         2 LUT     -0.405615
    156 C18        65.7689   64.2940   48.0907 Y9         2 LUT     -0.369639
    157 C19        68.8703   61.1285   45.3461 W1         2 LUT     -0.333362
    158 C20        72.3019   62.5513   41.2992 W2         2 LUT     -0.323439
    159 C21        86.3408   65.9812   35.6944 Z1         2 LUT      0.406104
    160 C22        86.9974   65.0890   34.6085 Z2         2 LUT     -0.404965
    161 C23        87.0588   65.6114   33.1640 Z3         2 LUT      0.391255
    162 O23        86.9561   64.5092   32.3280 S1         2 LUT     -0.528210
    163 C24        85.9316   66.6001   32.9643 W6         2 LUT     -0.258361
    164 C25        84.8935   66.7976   33.7786 Z5         2 LUT      0.133546
    165 C26        84.9306   66.1745   35.1911 W8         2 LUT     -0.147008
    166 C27        84.0675   66.9127   36.1243 Z7         2 LUT      0.023843
    167 C28        83.1842   66.3354   36.8770 Z8         2 LUT     -0.216987
    168 C29        82.2554   66.9849   37.8567 Z9         2 LUT      0.206524
    169 C30        81.2426   66.1692   38.2829 Y1         2 LUT     -0.215556
    170 C31        80.3813   66.3889   39.3801 Y2         2 LUT      0.025142
    171 C32        79.2008   65.7788   39.5254 Y3         2 LUT     -0.212209
    172 C33        78.2643   65.8151   40.6018 Y4         2 LUT      0.240937
    173 C34        77.0732   65.0925   40.5097 Y5         2 LUT     -0.218862
    174 C35        75.9179   65.1819   41.3548 Y6         2 LUT     -0.023547
    175 C36        87.2792   67.2306   35.9701 Y7         2 LUT     -0.393485
    176 C37        86.4747   65.1758   36.9842 Y7         2 LUT     -0.393485
    177 C38        83.7171   67.7362   33.3703 Y9         2 LUT     -0.387526
    178 C39        82.7430   68.3216   38.4011 W1         2 LUT     -0.322618
    179 C40        78.6229   66.7765   41.7395 W2         2 LUT     -0.358472
    180 H403       78.6263   67.8586   41.4257 R7         2 LUT      0.097720
    181 H402       77.8551   66.6124   42.5169 R7         2 LUT      0.097720
    182 H401       79.5002   66.6469   42.3014 R7         2 LUT      0.097720
    183 H393       83.0163   69.0095   37.6198 R4         2 LUT      0.082505
    184 H392       81.9584   68.7220   39.0859 R4         2 LUT      0.082505
    185 H391       83.5939   68.2173   39.0190 R4         2 LUT      0.082505
    186 H383       83.9255   68.8571   33.5649 R1         2 LUT      0.104030
    187 H382       83.5084   67.6804   32.2979 R1         2 LUT      0.104030
    188 H381       82.7777   67.3939   33.8948 R1         2 LUT      0.104030
    189 H373       85.8441   65.6978   37.8090 T4         2 LUT      0.089537
    190 H372       86.1522   64.1617   36.8665 T4         2 LUT      0.089537
    191 H371       87.5168   65.2111   37.2830 T4         2 LUT      0.089537
    192 H363       88.2989   66.9214   36.3188 T4         2 LUT      0.089537
    193 H362       87.3772   67.7586   35.0357 T4         2 LUT      0.089537
    194 H361       86.7362   67.8289   36.7148 T4         2 LUT      0.089537
    195 H222       87.9915   64.7602   34.8831 U2         2 LUT      0.127376
    196 H221       86.4014   64.1457   34.4695 U2         2 LUT      0.127376
    197 H203       71.6725   61.8102   41.7304 R7         2 LUT      0.087068
    198 H202       71.7981   62.9410   40.4023 R7         2 LUT      0.087068
    199 H201       73.1797   62.1673   40.8694 R7         2 LUT      0.087068
    200 H193       69.5723   60.6272   44.6486 R4         2 LUT      0.089716
    201 H192       68.6445   60.3615   46.0980 R4         2 LUT      0.089716
    202 H191       67.9732   61.3553   44.8736 R4         2 LUT      0.089716
    203 H183       65.9946   65.3793   47.9919 R1         2 LUT      0.094572
    204 H182       66.0357   63.7405   47.1294 R1         2 LUT      0.094572
    205 H181       64.7245   64.2147   48.2377 R1         2 LUT      0.094572
    206 H173       69.6591   62.4661   51.1448 T4         2 LUT      0.093752
    207 H172       68.1968   62.8391   52.1814 T4         2 LUT      0.093752
    208 H171       68.7279   61.3539   52.1778 T4         2 LUT      0.093752
    209 H163       68.0531   59.6730   50.8373 T4         2 LUT      0.093752
    210 H162       67.2453   59.7601   49.3525 T4         2 LUT      0.093752
    211 H161       68.9535   60.1128   49.3338 T4         2 LUT      0.093752
    212 HO3        65.8630   63.3053   53.2596 Q1         2 LUT      0.300121
    213 H8         69.6482   63.4501   47.7149 U7         2 LUT      0.080784
    214 H7         67.2348   61.5537   47.3704 U6         2 LUT      0.042190
    215 H42        64.8852   64.4636   50.2582 U5         2 LUT      0.145166
    216 H41        66.2826   64.7095   51.3226 U5         2 LUT      0.145166
    217 H35        75.9964   65.9085   42.1476 T3         2 LUT      0.077919
    218 H34        76.9603   64.3664   39.6808 T2         2 LUT      0.073626
    219 H32        78.8947   65.0049   38.8291 T1         2 LUT      0.092510
    220 H31        80.6355   67.0250   40.2177 U9         2 LUT      0.070048
    221 H30        81.1649   65.2489   37.7762 U8         2 LUT      0.085442
    222 H3         64.3998   62.5537   50.9716 U3         2 LUT     -0.031596
    223 H28        83.0330   65.3019   36.6433 U7         2 LUT      0.084728
    224 H27        84.2090   68.0193   36.1650 U6         2 LUT      0.087291
    225 H26        84.4971   65.1891   35.2391 Q6         2 LUT      0.075325
    226 H24        85.9105   67.0172   31.9581 Q5         2 LUT      0.094482
    227 H23        88.0625   66.1684   33.1082 U3         2 LUT     -0.024869
    228 H22        65.7256   61.0198   50.2410 U2         2 LUT      0.127376
    229 H21        66.4066   60.9956   51.8773 U2         2 LUT      0.127376
    230 H15        74.8970   63.6862   40.3527 T3         2 LUT      0.093200
    231 H14        74.0538   65.0313   43.0213 T2         2 LUT      0.068865
    232 H12        72.1944   64.3409   44.3159 T1         2 LUT      0.095507
    233 H11        70.5300   62.1446   43.2938 U9         2 LUT      0.068930
    234 H10        70.5913   63.9962   45.8164 U8         2 LUT      0.083911
    235 H1         87.1842   64.7346   31.3800 Q1         2 LUT      0.297311
@<TRIPOS>BOND
    1     6     1 1
    2     7     2 1
    3     8     3 1
    4     9     4 1
    5    11     4 1
    6    12     6 1
    7    13     9 1
    8    16     9 1
    9    25     5 1
   10    25    16 1
   11    26    10 1
   12    26    17 1
   13    27    18 1
   14    28    14 1
   15    28    19 1
   16    29    12 1
   17    30    13 1
   18    31    24 1
   19    32     1 1
   20    32    25 1
   21    33    21 1
   22    33    26 1
   23    34    22 1
   24    34    27 1
   25    35    23 1
   26    35    28 1
   27    36    12 1
   28    36    24 1
   29    37    13 1
   30    37    15 1
   31    38    31 1
   32    39    20 1
   33    39    32 1
   34    40     2 1
   35    40    33 1
   36    41     3 1
   37    41    34 1
   38    42     4 1
   39    42    35 1
   40    43    38 1
   41    44     5 1
   42    44    17 1
   43    44    39 1
   44    45    10 1
   45    45    18 1
   46    45    40 1
   47    46    19 1
   48    46    41 1
   49    47    14 1
   50    47    16 1
   51    47    42 1
   52    48    38 1
   53    49    48 1
   54    50    49 1
   55    51    50 1
   56    52    51 1
   57    53    51 1
   58    54    53 1
   59    55    54 1
   60    56    55 1
   61    57    56 1
   62    58    56 1
   63    59    58 1
   64    60    59 1
   65    61    60 1
   66    62    61 1
   67    63    61 1
   68    64    27 1
   69    64    46 1
   70    65     5 1
   71    65    10 1
   72    65    64 1
   73    65    14 1
   74    66    23 1
   75    67    23 1
   76    68    23 1
   77    69    22 1
   78    70    22 1
   79    71    22 1
   80    72    21 1
   81    73    21 1
   82    74    21 1
   83    75    20 1
   84    76    20 1
   85    77    20 1
   86    78    15 1
   87    79    15 1
   88    80    15 1
   89    81     8 1
   90    82     8 1
   91    83     8 1
   92    84     7 1
   93    85     7 1
   94    86     6 1
   95    87     6 1
   96    88     3 1
   97    89     3 1
   98    90     1 1
   99    91     1 1
  100    92    63 1
  101    93    63 1
  102    94    63 1
  103    95    62 1
  104    96    62 1
  105    97    62 1
  106    98    60 1
  107    99    60 1
  108   100    59 1
  109   101    59 1
  110   102    58 1
  111   103    58 1
  112   104    57 1
  113   105    57 1
  114   106    57 1
  115   107    55 1
  116   108    55 1
  117   109    54 1
  118   110    54 1
  119   111    53 1
  120   112    53 1
  121   113    19 1
  122   114    18 1
  123   115    17 1
  124   116     9 1
  125   117     2 1
  126   118    52 1
  127   119    52 1
  128   120    52 1
  129   121    51 1
  130   122    50 1
  131   123    50 1
  132   124    49 1
  133   125    49 1
  134   126    48 1
  135   127    48 1
  136   128    43 1
  137   129    43 1
  138   130    43 1
  139   131    39 1
  140   132    32 1
  141   133    31 1
  142   134    61 1
  143   135    56 1
  144   136    24 1
  145   137    24 1
  146   139   138 1
  147   140   139 1
  148   141   140 1
  149   142   140 1
  150   143   142 1
  151   144   138 1
  152   144   143 1
  153   145   144 1
  154   146   145 1
  155   147   146 1
  156   148   147 1
  157   149   148 1
  158   150   149 1
  159   151   150 1
  160   152   151 1
  161   153   152 1
  162   154   138 1
  163   155   138 1
  164   156   143 1
  165   157   147 1
  166   158   151 1
  167   160   159 1
  168   161   160 1
  169   162   161 1
  170   163   161 1
  171   164   163 1
  172   165   159 1
  173   165   164 1
  174   166   165 1
  175   167   166 1
  176   168   167 1
  177   169   168 1
  178   170   169 1
  179   171   170 1
  180   172   171 1
  181   173   172 1
  182   174   153 1
  183   174   173 1
  184   175   159 1
  185   176   159 1
  186   177   164 1
  187   178   168 1
  188   179   172 1
  189   180   179 1
  190   181   179 1
  191   182   179 1
  192   183   178 1
  193   184   178 1
  194   185   178 1
  195   186   177 1
  196   187   177 1
  197   188   177 1
  198   189   176 1
  199   190   176 1
  200   191   176 1
  201   192   175 1
  202   193   175 1
  203   194   175 1
  204   195   160 1
  205   196   160 1
  206   197   158 1
  207   198   158 1
  208   199   158 1
  209   200   157 1
  210   201   157 1
  211   202   157 1
  212   203   156 1
  213   204   156 1
  214   205   156 1
  215   206   155 1
  216   207   155 1
  217   208   155 1
  218   209   154 1
  219   210   154 1
  220   211   154 1
  221   212   141 1
  222   213   146 1
  223   214   145 1
  224   215   142 1
  225   216   142 1
  226   217   174 1
  227   218   173 1
  228   219   171 1
  229   220   170 1
  230   221   169 1
  231   222   140 1
  232   223   167 1
  233   224   166 1
  234   225   165 1
  235   226   163 1
  236   227   161 1
  237   228   139 1
  238   229   139 1
  239   230   153 1
  240   231   152 1
  241   232   150 1
  242   233   149 1
  243   234   148 1
  244   235   162 1
  245   65    153 1
  246   65    174 1
@<TRIPOS>SUBSTRUCTURE
      1 CLA               1 ****               0 ****  **** 
      2 LUT             138 ****               0 ****  **** 
