@<TRIPOS>MOLECULE
Cpptraj generated mol2 file.
  235   246     2     0     0
SMALL
USER_CHARGES


@<TRIPOS>ATOM
      1 CAA        80.0639   58.4752   34.4641 a2         1 CLA     -0.055900
      2 CAB        80.5398   62.7053   43.0776 c8         1 CLA     -0.148500
      3 CAC        73.2053   58.6640   42.7336 a2         1 CLA     -0.012600
      4 CAD        76.1667   55.6212   35.8249 ck         1 CLA      0.398800
      5 NA         79.2393   59.0106   37.8490 ns         1 CLA     -0.225500
      6 CBA        81.3187   58.2901   33.4499 a2         1 CLA     -0.135000
      7 CBB        80.2978   62.1432   44.3040 c0         1 CLA     -0.395200
      8 CBC        73.1773   57.1309   43.1109 a3         1 CLA     -0.037700
      9 CBD        77.5923   56.2408   35.3936 a1         1 CLA     -0.053900
     10 NB         79.1187   60.7788   40.1593 nm         1 CLA     -0.295700
     11 OBD        75.5875   54.6889   35.2638 o2         1 CLA     -0.494600
     12 CGA        81.9089   56.8442   33.2177 c4         1 CLA      0.827000
     13 CGD        78.6724   55.1351   35.5243 c4         1 CLA      0.655300
     14 ND         76.3960   58.0955   38.3625 nm         1 CLA     -0.291600
     15 CED        79.7285   53.5126   36.7963 a3         1 CLA      0.005400
     16 CHA        77.9358   57.4068   36.4277 cs         1 CLA     -0.123800
     17 CHB        80.9726   60.6741   38.6234 aa         1 CLA     -0.291900
     18 CHC        77.8320   61.0618   42.1846 aa         1 CLA     -0.090400
     19 CHD        74.6438   57.9765   40.0070 aa         1 CLA     -0.052000
     20 CMA        82.4996   58.2307   37.4615 a3         1 CLA     -0.230700
     21 CMB        82.3756   62.4700   40.4019 a3         1 CLA     -0.180800
     22 CMC        75.4967   60.6689   44.3216 a3         1 CLA     -0.134000
     23 CMD        73.3833   55.9878   37.6983 a3         1 CLA     -0.141100
     24 C1         82.8894   54.9876   34.2406 a2         1 CLA      0.023000
     25 C1A        79.1023   58.1773   36.7629 ac         1 CLA     -0.015100
     26 C1B        80.3667   61.1119   39.7706 cr         1 CLA      0.054700
     27 C1C        76.6933   60.2122   42.0463 cn         1 CLA     -0.005600
     28 C1D        75.1823   57.6103   38.7762 ap         1 CLA     -0.047300
     29 O1A        81.7341   56.2373   32.2113 o2         1 CLA     -0.610800
     30 O1D        79.5988   55.0538   34.7587 o2         1 CLA     -0.558200
     31 C2         83.2449   54.4718   35.6054 c8         1 CLA     -0.325100
     32 C2A        80.3402   58.0515   35.9605 a1         1 CLA      0.098600
     33 C2B        80.9782   61.9863   40.6579 cb         1 CLA      0.088500
     34 C2C        75.5358   60.0441   42.9566 cb         1 CLA      0.053700
     35 C2D        74.7038   56.6230   37.7576 cb         1 CLA      0.058900
     36 O2A        82.6923   56.4302   34.2425 o1         1 CLA     -0.437200
     37 O2D        78.4840   54.2625   36.5838 o1         1 CLA     -0.357600
     38 C3         84.2598   53.6118   35.9228 c5         1 CLA      0.031200
     39 C3A        81.3561   58.9418   36.7408 a1         1 CLA      0.166800
     40 C3B        80.1563   62.0922   41.7739 cb         1 CLA      0.035000
     41 C3C        74.5830   59.2076   42.2685 cb         1 CLA     -0.089900
     42 C3D        75.8053   56.4147   36.9378 cb         1 CLA     -0.035900
     43 C4         84.2034   52.0966   36.1294 a3         1 CLA     -0.053300
     44 C4A        80.4565   59.6424   37.8346 ac         1 CLA      0.001800
     45 C4B        78.9386   61.3015   41.4188 cn         1 CLA     -0.020900
     46 C4C        75.2107   58.8308   41.0335 cr         1 CLA     -0.044400
     47 C4D        76.7735   57.4438   37.2651 c6         1 CLA     -0.046000
     48 C5         85.5913   54.2536   36.1140 a2         1 CLA     -0.070400
     49 C6         85.9696   54.8217   37.4633 a2         1 CLA      0.043900
     50 C7         85.3789   56.2047   37.8125 a2         1 CLA     -0.150000
     51 C8         86.2504   57.2054   38.6579 a1         1 CLA      0.064200
     52 C9         87.4708   57.6379   37.8768 a3         1 CLA     -0.259300
     53 C10        86.5574   56.6791   40.0974 a2         1 CLA     -0.071900
     54 C11        87.0272   57.8243   41.0591 a2         1 CLA      0.014500
     55 C12        87.2932   57.2069   42.4605 a2         1 CLA     -0.112100
     56 C13        87.6107   58.1885   43.6530 a1         1 CLA      0.089200
     57 C14        88.9182   58.9527   43.2859 a3         1 CLA     -0.239100
     58 C15        87.7322   57.3534   44.9544 a2         1 CLA     -0.102200
     59 C16        88.0579   58.0476   46.2555 a2         1 CLA      0.023900
     60 C17        87.2836   59.3749   46.6005 a2         1 CLA     -0.105700
     61 C18        85.7614   59.3966   46.5063 a1         1 CLA      0.206800
     62 C19        85.0504   58.6978   47.7449 a3         1 CLA     -0.280100
     63 C20        85.2300   60.8097   46.1541 a3         1 CLA     -0.280100
     64 NC         76.4370   59.4628   40.9215 nx         1 CLA     -0.309200
     65 MG         77.7204   59.4951   39.1854 mg         1 CLA      0.895000
     66 HMD3       73.3041   55.0393   38.1624 dc         1 CLA      0.064300
     67 HMD2       72.6715   56.6689   38.2068 dc         1 CLA      0.064300
     68 HMD1       73.0722   55.9110   36.6122 dc         1 CLA      0.064300
     69 HMC3       76.0570   61.6119   44.3581 dc         1 CLA      0.052100
     70 HMC2       74.4036   60.8804   44.4407 dc         1 CLA      0.052100
     71 HMC1       75.8641   59.9559   45.0134 dc         1 CLA      0.052100
     72 HMB3       82.3056   62.8890   39.3998 dc         1 CLA      0.063600
     73 HMB2       82.7557   63.1725   41.0543 dc         1 CLA      0.063600
     74 HMB1       83.0568   61.6366   40.3346 dc         1 CLA      0.063600
     75 HMA3       83.1604   57.6818   36.7407 dc         1 CLA      0.058300
     76 HMA2       83.0438   58.9830   38.0082 dc         1 CLA      0.058300
     77 HMA1       82.1001   57.4686   38.2186 dc         1 CLA      0.058300
     78 HED3       79.6425   52.9030   37.7301 dc         1 CLA      0.079300
     79 HED2       79.7359   52.8051   35.9051 dc         1 CLA      0.079300
     80 HED1       80.6067   54.1390   36.8782 dc         1 CLA      0.079300
     81 HBC3       73.4134   56.5053   42.2266 dc         1 CLA      0.016300
     82 HBC2       73.9474   56.9920   43.9083 dc         1 CLA      0.016300
     83 HBC1       72.1408   56.8971   43.5188 dc         1 CLA      0.016300
     84 HBB2       80.7254   62.5890   45.2292 da         1 CLA      0.183000
     85 HBB1       79.7907   61.1962   44.5027 da         1 CLA      0.183000
     86 HBA2       81.0569   58.6705   32.4632 dc         1 CLA      0.029400
     87 HBA1       82.1167   58.9016   33.8655 dc         1 CLA      0.029400
     88 HAC2       72.9791   59.2002   43.6719 dc         1 CLA      0.029300
     89 HAC1       72.3935   58.9882   42.0045 dc         1 CLA      0.029300
     90 HAA2       79.2551   57.8491   34.0980 dc         1 CLA      0.028700
     91 HAA1       79.6503   59.5152   34.5312 dc         1 CLA      0.028700
     92 H203       85.5512   61.1410   45.1548 dc         1 CLA      0.065600
     93 H202       84.1303   60.6320   46.0538 dc         1 CLA      0.065600
     94 H201       85.3331   61.5290   46.9649 dc         1 CLA      0.065600
     95 H193       85.4134   57.7137   47.8050 dc         1 CLA      0.065600
     96 H192       85.2313   59.2448   48.6932 dc         1 CLA      0.065600
     97 H191       84.0087   58.5320   47.6115 dc         1 CLA      0.065600
     98 H172       87.6104   59.7157   47.5879 dc         1 CLA      0.027600
     99 H171       87.5698   60.0410   45.8252 dc         1 CLA      0.027600
    100 H162       87.9403   57.2727   47.0579 dc         1 CLA      0.002900
    101 H161       89.1464   58.2082   46.2532 dc         1 CLA      0.002900
    102 H152       86.7281   56.9981   45.0653 dc         1 CLA      0.029100
    103 H151       88.4042   56.5159   44.8932 dc         1 CLA      0.029100
    104 H143       89.7192   58.1547   43.2567 dc         1 CLA      0.063600
    105 H142       88.8911   59.3800   42.2141 dc         1 CLA      0.063600
    106 H141       89.1648   59.6516   44.1276 dc         1 CLA      0.063600
    107 H122       86.3435   56.8036   42.7459 dc         1 CLA      0.032500
    108 H121       88.0895   56.4691   42.4117 dc         1 CLA      0.032500
    109 H112       87.8830   58.3039   40.6056 dc         1 CLA      0.006600
    110 H111       86.1994   58.5443   41.1977 dc         1 CLA      0.006600
    111 H102       85.5506   56.3018   40.3529 dc         1 CLA      0.024100
    112 H101       87.3159   55.8773   40.0465 dc         1 CLA      0.024100
    113 HHD        73.7494   57.4052   40.3225 da         1 CLA      0.174300
    114 HHC        77.8121   61.6216   43.0203 da         1 CLA      0.136800
    115 HHB        82.0011   61.0491   38.3608 da         1 CLA      0.138300
    116 HBD        77.5615   56.5944   34.3511 dc         1 CLA      0.107700
    117 HAB        81.2564   63.4942   42.9937 da         1 CLA      0.155200
    118 H93        88.0547   56.7201   37.9402 dc         1 CLA      0.069500
    119 H92        87.2349   58.0235   36.8226 dc         1 CLA      0.069500
    120 H91        88.0916   58.2961   38.4266 dc         1 CLA      0.069500
    121 H8         85.6784   58.1863   38.8624 dc         1 CLA      0.029300
    122 H72        85.3226   56.7081   36.8262 dc         1 CLA      0.044400
    123 H71        84.3938   56.2220   38.2485 dc         1 CLA      0.044400
    124 H62        85.5690   54.1405   38.1913 dc         1 CLA      0.015600
    125 H61        87.0277   54.9586   37.5047 dc         1 CLA      0.015600
    126 H52        86.3796   53.6226   35.8259 dc         1 CLA      0.033200
    127 H51        85.6970   54.9658   35.3200 dc         1 CLA      0.033200
    128 H43        84.4872   51.8943   37.1137 dc         1 CLA      0.037000
    129 H42        83.1310   51.7804   36.0582 dc         1 CLA      0.037000
    130 H41        84.8314   51.5461   35.3758 dc         1 CLA      0.037000
    131 H3A        81.7754   59.6728   36.0071 dc         1 CLA      0.041100
    132 H2A        80.8582   57.0740   35.9946 dc         1 CLA      0.083100
    133 H2         82.7929   54.9002   36.5161 da         1 CLA      0.180900
    134 H18        85.4144   58.7865   45.6495 dc         1 CLA     -0.003900
    135 H13        86.9281   58.9698   43.7052 dc         1 CLA      0.019700
    136 H12        81.9098   54.6131   34.0540 dc         1 CLA      0.120400
    137 H11        83.6087   54.6214   33.5083 dc         1 CLA      0.120400
    138 C1         69.9775   62.4140   49.6118 Z1         2 LUT      0.509236
    139 C2         68.7184   62.1192   50.3751 Z2         2 LUT     -0.434695
    140 C3         67.7888   63.3078   50.8214 Z3         2 LUT      0.437453
    141 O3         68.0058   63.7224   52.1786 S1         2 LUT     -0.547129
    142 C4         68.0336   64.5140   49.8985 Z4         2 LUT     -0.468603
    143 C5         68.5755   64.1572   48.5033 Z5         2 LUT      0.279246
    144 C6         69.5664   63.2855   48.3560 Z6         2 LUT     -0.305473
    145 C7         69.9785   62.8072   47.0289 Z7         2 LUT      0.069402
    146 C8         71.1908   62.9836   46.4787 Z8         2 LUT     -0.191631
    147 C9         71.6863   62.6155   45.2015 Z9         2 LUT      0.196698
    148 C10        72.7106   63.2758   44.6727 Y1         2 LUT     -0.208611
    149 C11        73.4387   63.1545   43.4217 Y2         2 LUT      0.030784
    150 C12        74.4494   63.9461   43.0488 Y3         2 LUT     -0.220316
    151 C13        75.3109   63.7169   41.8915 Y4         2 LUT      0.215937
    152 C14        76.4926   64.4525   41.8938 Y5         2 LUT     -0.185793
    153 C15        77.5746   64.4015   41.0015 Y6         2 LUT     -0.057835
    154 C16        70.6159   61.0679   49.1666 Y7         2 LUT     -0.405615
    155 C17        70.9769   63.3311   50.4734 Y7         2 LUT     -0.405615
    156 C18        67.9537   64.9594   47.3823 Y9         2 LUT     -0.369639
    157 C19        71.0525   61.4406   44.5162 W1         2 LUT     -0.333362
    158 C20        74.9310   62.8333   40.8257 W2         2 LUT     -0.323439
    159 C21        89.1404   65.3880   35.1587 Z1         2 LUT      0.406104
    160 C22        89.7524   64.5972   33.9719 Z2         2 LUT     -0.404965
    161 C23        89.6985   65.2659   32.6130 Z3         2 LUT      0.391255
    162 O23        89.9641   64.4042   31.5591 S1         2 LUT     -0.528210
    163 C24        88.4259   66.1017   32.4011 W6         2 LUT     -0.258361
    164 C25        87.5326   66.3312   33.3383 Z5         2 LUT      0.133546
    165 C26        87.6386   65.7002   34.7455 W8         2 LUT     -0.147008
    166 C27        86.9508   66.5101   35.7421 Z7         2 LUT      0.023843
    167 C28        85.7057   66.2249   36.1632 Z8         2 LUT     -0.216987
    168 C29        85.0263   66.6890   37.4056 Z9         2 LUT      0.206524
    169 C30        83.8469   66.1426   37.8401 Y1         2 LUT     -0.215556
    170 C31        83.0422   66.3603   39.0566 Y2         2 LUT      0.025142
    171 C32        81.8968   65.6147   39.2833 Y3         2 LUT     -0.212209
    172 C33        80.9788   65.6992   40.3783 Y4         2 LUT      0.240937
    173 C34        79.8435   64.9702   40.2533 Y5         2 LUT     -0.218862
    174 C35        78.7944   64.9838   41.2215 Y6         2 LUT     -0.023547
    175 C36        90.2145   66.5784   35.2113 Y7         2 LUT     -0.393485
    176 C37        89.2867   64.6930   36.5503 Y7         2 LUT     -0.393485
    177 C38        86.2478   67.1556   32.9348 Y9         2 LUT     -0.387526
    178 C39        85.6817   67.7972   38.2933 W1         2 LUT     -0.322618
    179 C40        81.3859   66.3566   41.6556 W2         2 LUT     -0.358472
    180 H403       82.0891   67.1967   41.6836 R7         2 LUT      0.097720
    181 H402       80.4967   66.8226   42.0046 R7         2 LUT      0.097720
    182 H401       81.7307   65.5695   42.3397 R7         2 LUT      0.097720
    183 H393       86.4893   68.4626   37.9478 R4         2 LUT      0.082505
    184 H392       84.9648   68.4903   38.6896 R4         2 LUT      0.082505
    185 H391       86.0331   67.2997   39.1654 R4         2 LUT      0.082505
    186 H383       86.1973   67.4898   31.8572 R1         2 LUT      0.104030
    187 H382       85.3639   66.6439   33.3000 R1         2 LUT      0.104030
    188 H381       86.2813   68.0758   33.5048 R1         2 LUT      0.104030
    189 H373       90.2418   64.2014   36.7132 T4         2 LUT      0.089537
    190 H372       89.0558   65.3340   37.4131 T4         2 LUT      0.089537
    191 H371       88.5068   63.9505   36.5763 T4         2 LUT      0.089537
    192 H363       90.1844   67.1252   36.1748 T4         2 LUT      0.089537
    193 H362       91.2379   66.2887   34.9846 T4         2 LUT      0.089537
    194 H361       89.8654   67.2463   34.4619 T4         2 LUT      0.089537
    195 H222       90.8267   64.3760   34.0530 U2         2 LUT      0.127376
    196 H221       89.1465   63.7342   33.7265 U2         2 LUT      0.127376
    197 H203       74.1864   63.2862   40.1680 R7         2 LUT      0.087068
    198 H202       75.8661   62.5652   40.1794 R7         2 LUT      0.087068
    199 H201       74.5713   61.9046   41.2667 R7         2 LUT      0.087068
    200 H193       71.0808   60.5575   45.1355 R4         2 LUT      0.089716
    201 H192       69.9859   61.6082   44.2529 R4         2 LUT      0.089716
    202 H191       71.5431   61.0911   43.6255 R4         2 LUT      0.089716
    203 H183       67.8432   64.3182   46.5055 R1         2 LUT      0.094572
    204 H182       66.9843   65.3204   47.6795 R1         2 LUT      0.094572
    205 H181       68.5594   65.8767   47.1045 R1         2 LUT      0.094572
    206 H173       72.0486   63.1764   50.3120 T4         2 LUT      0.093752
    207 H172       70.7820   64.4196   50.4765 T4         2 LUT      0.093752
    208 H171       70.8312   63.0861   51.5666 T4         2 LUT      0.093752
    209 H163       71.6076   61.1666   48.7454 T4         2 LUT      0.093752
    210 H162       70.8763   60.3183   49.9702 T4         2 LUT      0.093752
    211 H161       69.9184   60.6138   48.4437 T4         2 LUT      0.093752
    212 HO3        67.5372   63.1890   52.8522 Q1         2 LUT      0.300121
    213 H8         71.9087   63.5966   47.0454 U7         2 LUT      0.080784
    214 H7         69.2389   62.1898   46.5614 U6         2 LUT      0.042190
    215 H42        67.1109   65.1451   49.8223 U5         2 LUT      0.145166
    216 H41        68.7221   65.2804   50.2997 U5         2 LUT      0.145166
    217 H35        78.9550   65.5746   42.1362 T3         2 LUT      0.077919
    218 H34        79.5884   64.3603   39.3561 T2         2 LUT      0.073626
    219 H32        81.6116   64.9834   38.5173 T1         2 LUT      0.092510
    220 H31        83.5145   67.0586   39.7540 U9         2 LUT      0.070048
    221 H30        83.4917   65.3556   37.2229 U8         2 LUT      0.085442
    222 H3         66.6855   63.2299   50.5647 U3         2 LUT     -0.031596
    223 H28        85.2782   65.4430   35.5009 U7         2 LUT      0.084728
    224 H27        87.5081   67.1167   36.3853 U6         2 LUT      0.087291
    225 H26        87.1763   64.6983   34.5962 Q6         2 LUT      0.075325
    226 H24        88.3893   66.6501   31.4846 Q5         2 LUT      0.094482
    227 H23        90.5309   66.0621   32.6331 U3         2 LUT     -0.024869
    228 H22        68.0966   61.5443   49.6738 U2         2 LUT      0.127376
    229 H21        68.9878   61.5253   51.2660 U2         2 LUT      0.127376
    230 H15        77.4145   63.9974   40.0346 T3         2 LUT      0.093200
    231 H14        76.5863   65.0436   42.8335 T2         2 LUT      0.068865
    232 H12        74.7578   64.6572   43.7462 T1         2 LUT      0.095507
    233 H11        73.2285   62.3055   42.7799 U9         2 LUT      0.068930
    234 H10        72.9600   64.1038   45.3632 U8         2 LUT      0.083911
    235 H1         90.3024   64.8984   30.7409 Q1         2 LUT      0.297311
@<TRIPOS>BOND
    1     6     1 1
    2     7     2 1
    3     8     3 1
    4     9     4 1
    5    11     4 1
    6    12     6 1
    7    13     9 1
    8    16     9 1
    9    25     5 1
   10    25    16 1
   11    26    10 1
   12    26    17 1
   13    27    18 1
   14    28    14 1
   15    28    19 1
   16    29    12 1
   17    30    13 1
   18    31    24 1
   19    32     1 1
   20    32    25 1
   21    33    21 1
   22    33    26 1
   23    34    22 1
   24    34    27 1
   25    35    23 1
   26    35    28 1
   27    36    12 1
   28    36    24 1
   29    37    13 1
   30    37    15 1
   31    38    31 1
   32    39    20 1
   33    39    32 1
   34    40     2 1
   35    40    33 1
   36    41     3 1
   37    41    34 1
   38    42     4 1
   39    42    35 1
   40    43    38 1
   41    44     5 1
   42    44    17 1
   43    44    39 1
   44    45    10 1
   45    45    18 1
   46    45    40 1
   47    46    19 1
   48    46    41 1
   49    47    14 1
   50    47    16 1
   51    47    42 1
   52    48    38 1
   53    49    48 1
   54    50    49 1
   55    51    50 1
   56    52    51 1
   57    53    51 1
   58    54    53 1
   59    55    54 1
   60    56    55 1
   61    57    56 1
   62    58    56 1
   63    59    58 1
   64    60    59 1
   65    61    60 1
   66    62    61 1
   67    63    61 1
   68    64    27 1
   69    64    46 1
   70    65     5 1
   71    65    10 1
   72    65    64 1
   73    65    14 1
   74    66    23 1
   75    67    23 1
   76    68    23 1
   77    69    22 1
   78    70    22 1
   79    71    22 1
   80    72    21 1
   81    73    21 1
   82    74    21 1
   83    75    20 1
   84    76    20 1
   85    77    20 1
   86    78    15 1
   87    79    15 1
   88    80    15 1
   89    81     8 1
   90    82     8 1
   91    83     8 1
   92    84     7 1
   93    85     7 1
   94    86     6 1
   95    87     6 1
   96    88     3 1
   97    89     3 1
   98    90     1 1
   99    91     1 1
  100    92    63 1
  101    93    63 1
  102    94    63 1
  103    95    62 1
  104    96    62 1
  105    97    62 1
  106    98    60 1
  107    99    60 1
  108   100    59 1
  109   101    59 1
  110   102    58 1
  111   103    58 1
  112   104    57 1
  113   105    57 1
  114   106    57 1
  115   107    55 1
  116   108    55 1
  117   109    54 1
  118   110    54 1
  119   111    53 1
  120   112    53 1
  121   113    19 1
  122   114    18 1
  123   115    17 1
  124   116     9 1
  125   117     2 1
  126   118    52 1
  127   119    52 1
  128   120    52 1
  129   121    51 1
  130   122    50 1
  131   123    50 1
  132   124    49 1
  133   125    49 1
  134   126    48 1
  135   127    48 1
  136   128    43 1
  137   129    43 1
  138   130    43 1
  139   131    39 1
  140   132    32 1
  141   133    31 1
  142   134    61 1
  143   135    56 1
  144   136    24 1
  145   137    24 1
  146   139   138 1
  147   140   139 1
  148   141   140 1
  149   142   140 1
  150   143   142 1
  151   144   138 1
  152   144   143 1
  153   145   144 1
  154   146   145 1
  155   147   146 1
  156   148   147 1
  157   149   148 1
  158   150   149 1
  159   151   150 1
  160   152   151 1
  161   153   152 1
  162   154   138 1
  163   155   138 1
  164   156   143 1
  165   157   147 1
  166   158   151 1
  167   160   159 1
  168   161   160 1
  169   162   161 1
  170   163   161 1
  171   164   163 1
  172   165   159 1
  173   165   164 1
  174   166   165 1
  175   167   166 1
  176   168   167 1
  177   169   168 1
  178   170   169 1
  179   171   170 1
  180   172   171 1
  181   173   172 1
  182   174   153 1
  183   174   173 1
  184   175   159 1
  185   176   159 1
  186   177   164 1
  187   178   168 1
  188   179   172 1
  189   180   179 1
  190   181   179 1
  191   182   179 1
  192   183   178 1
  193   184   178 1
  194   185   178 1
  195   186   177 1
  196   187   177 1
  197   188   177 1
  198   189   176 1
  199   190   176 1
  200   191   176 1
  201   192   175 1
  202   193   175 1
  203   194   175 1
  204   195   160 1
  205   196   160 1
  206   197   158 1
  207   198   158 1
  208   199   158 1
  209   200   157 1
  210   201   157 1
  211   202   157 1
  212   203   156 1
  213   204   156 1
  214   205   156 1
  215   206   155 1
  216   207   155 1
  217   208   155 1
  218   209   154 1
  219   210   154 1
  220   211   154 1
  221   212   141 1
  222   213   146 1
  223   214   145 1
  224   215   142 1
  225   216   142 1
  226   217   174 1
  227   218   173 1
  228   219   171 1
  229   220   170 1
  230   221   169 1
  231   222   140 1
  232   223   167 1
  233   224   166 1
  234   225   165 1
  235   226   163 1
  236   227   161 1
  237   228   139 1
  238   229   139 1
  239   230   153 1
  240   231   152 1
  241   232   150 1
  242   233   149 1
  243   234   148 1
  244   235   162 1
  245   65    153 1
  246   65    174 1
@<TRIPOS>SUBSTRUCTURE
      1 CLA               1 ****               0 ****  **** 
      2 LUT             138 ****               0 ****  **** 
