@<TRIPOS>MOLECULE
Cpptraj generated mol2 file.
  235   246     2     0     0
SMALL
USER_CHARGES


@<TRIPOS>ATOM
      1 CAA        80.2532   59.4683   34.0000 a2         1 CLA     -0.055900
      2 CAB        79.3083   62.2733   43.4361 c8         1 CLA     -0.148500
      3 CAC        72.5844   58.0280   41.6267 a2         1 CLA     -0.012600
      4 CAD        75.9801   57.1414   34.3177 ck         1 CLA      0.398800
      5 NA         78.9591   59.3914   37.3723 ns         1 CLA     -0.225500
      6 CBA        81.6457   59.3617   33.2343 a2         1 CLA     -0.135000
      7 CBB        79.8208   63.4975   43.7278 c0         1 CLA     -0.395200
      8 CBC        72.9262   56.5141   41.7382 a3         1 CLA     -0.037700
      9 CBD        77.4999   57.6240   34.3028 a1         1 CLA     -0.053900
     10 NB         78.7094   60.3248   40.1997 nm         1 CLA     -0.295700
     11 OBD        75.4106   56.6812   33.3855 o2         1 CLA     -0.494600
     12 CGA        81.9140   58.0581   32.5922 c4         1 CLA      0.827000
     13 CGD        78.4269   56.4225   34.0798 c4         1 CLA      0.655300
     14 ND         76.0663   58.5136   37.5450 nm         1 CLA     -0.291600
     15 CED        78.7586   54.0914   34.3252 a3         1 CLA      0.005400
     16 CHA        77.7022   58.2527   35.6498 cs         1 CLA     -0.123800
     17 CHB        80.7654   60.4157   38.8015 aa         1 CLA     -0.291900
     18 CHC        76.9692   60.7393   42.0758 aa         1 CLA     -0.090400
     19 CHD        73.9787   58.2682   38.9287 aa         1 CLA     -0.052000
     20 CMA        82.5075   58.8274   36.8023 a3         1 CLA     -0.230700
     21 CMB        82.0799   61.6230   41.4228 a3         1 CLA     -0.180800
     22 CMC        74.3531   59.9718   43.6978 a3         1 CLA     -0.134000
     23 CMD        72.9696   56.8644   36.2177 a3         1 CLA     -0.141100
     24 C1         82.8196   55.9101   33.0397 a2         1 CLA      0.023000
     25 C1A        78.8896   58.8702   36.1158 ac         1 CLA     -0.015100
     26 C1B        80.0343   60.5908   40.0245 cr         1 CLA      0.054700
     27 C1C        75.8716   59.9496   41.5731 cn         1 CLA     -0.005600
     28 C1D        74.7534   58.1136   37.6912 ap         1 CLA     -0.047300
     29 O1A        81.4760   57.6522   31.5186 o2         1 CLA     -0.610800
     30 O1D        79.3675   56.5043   33.2360 o2         1 CLA     -0.558200
     31 C2         83.6120   55.2280   34.2140 c8         1 CLA     -0.325100
     32 C2A        80.2567   58.8590   35.4084 a1         1 CLA      0.098600
     33 C2B        80.5743   61.2846   41.2206 cb         1 CLA      0.088500
     34 C2C        74.5860   59.6918   42.2765 cb         1 CLA      0.053700
     35 C2D        74.2989   57.4854   36.4573 cb         1 CLA      0.058900
     36 O2A        82.6753   57.3268   33.4997 o1         1 CLA     -0.437200
     37 O2D        78.2010   55.3041   34.9200 o1         1 CLA     -0.357600
     38 C3         84.7812   54.5361   34.0958 c5         1 CLA      0.031200
     39 C3A        81.2018   59.6299   36.4073 a1         1 CLA      0.166800
     40 C3B        79.5113   61.5046   42.1454 cb         1 CLA      0.035000
     41 C3C        73.8602   58.8666   41.3566 cb         1 CLA     -0.089900
     42 C3D        75.3963   57.5272   35.5869 cb         1 CLA     -0.035900
     43 C4         84.8131   53.0465   33.8436 a3         1 CLA     -0.053300
     44 C4A        80.2773   59.8590   37.6150 ac         1 CLA      0.001800
     45 C4B        78.3551   60.8157   41.5535 cn         1 CLA     -0.020900
     46 C4C        74.5793   58.8298   40.1235 cr         1 CLA     -0.044400
     47 C4D        76.4827   58.1775   36.3167 c6         1 CLA     -0.046000
     48 C5         86.0529   55.3776   34.2852 a2         1 CLA     -0.070400
     49 C6         86.1065   56.5634   35.2525 a2         1 CLA      0.043900
     50 C7         86.1875   56.0815   36.7173 a2         1 CLA     -0.150000
     51 C8         86.1242   57.3146   37.6718 a1         1 CLA      0.064200
     52 C9         87.4616   58.1158   37.6949 a3         1 CLA     -0.259300
     53 C10        85.8530   56.7349   39.0888 a2         1 CLA     -0.071900
     54 C11        85.4853   57.8155   40.1095 a2         1 CLA      0.014500
     55 C12        85.2153   57.1477   41.5164 a2         1 CLA     -0.112100
     56 C13        85.0542   58.1031   42.7588 a1         1 CLA      0.089200
     57 C14        86.3168   59.0601   42.9817 a3         1 CLA     -0.239100
     58 C15        84.7453   57.3878   44.1321 a2         1 CLA     -0.102200
     59 C16        83.2635   56.9775   44.4501 a2         1 CLA      0.023900
     60 C17        82.3839   58.2004   44.6133 a2         1 CLA     -0.105700
     61 C18        82.7940   59.3895   45.4610 a1         1 CLA      0.206800
     62 C19        81.7684   60.4895   45.1642 a3         1 CLA     -0.280100
     63 C20        82.8513   59.0881   46.9624 a3         1 CLA     -0.280100
     64 NC         75.8185   59.4439   40.3002 nx         1 CLA     -0.309200
     65 MG         77.3185   59.5943   38.7581 mg         1 CLA      0.895000
     66 HMD3       72.3463   57.7381   35.9826 dc         1 CLA      0.064300
     67 HMD2       73.0147   56.0747   35.5028 dc         1 CLA      0.064300
     68 HMD1       72.6833   56.4550   37.1663 dc         1 CLA      0.064300
     69 HMC3       73.6702   60.8084   43.8622 dc         1 CLA      0.052100
     70 HMC2       73.8595   59.1228   44.0900 dc         1 CLA      0.052100
     71 HMC1       75.2742   60.1837   44.2722 dc         1 CLA      0.052100
     72 HMB3       82.4357   60.6586   41.7906 dc         1 CLA      0.063600
     73 HMB2       82.4557   62.0591   40.4757 dc         1 CLA      0.063600
     74 HMB1       82.1734   62.2985   42.2155 dc         1 CLA      0.063600
     75 HMA3       83.1673   58.6598   35.9494 dc         1 CLA      0.058300
     76 HMA2       83.0446   59.2462   37.7109 dc         1 CLA      0.058300
     77 HMA1       82.1560   57.8947   37.0811 dc         1 CLA      0.058300
     78 HED3       78.7021   53.3273   35.1221 dc         1 CLA      0.079300
     79 HED2       78.1660   53.7604   33.4660 dc         1 CLA      0.079300
     80 HED1       79.8042   54.1427   34.1126 dc         1 CLA      0.079300
     81 HBC3       73.0905   56.1264   40.7409 dc         1 CLA      0.016300
     82 HBC2       73.8121   56.3597   42.3477 dc         1 CLA      0.016300
     83 HBC1       72.0669   55.9580   42.2236 dc         1 CLA      0.016300
     84 HBB2       79.7359   63.7960   44.7614 da         1 CLA      0.183000
     85 HBB1       80.5734   63.8038   43.0013 da         1 CLA      0.183000
     86 HBA2       81.8148   60.0083   32.3604 dc         1 CLA      0.029400
     87 HBA1       82.3924   59.6083   33.9725 dc         1 CLA      0.029400
     88 HAC2       72.0605   58.3703   42.5511 dc         1 CLA      0.029300
     89 HAC1       71.9123   58.1162   40.7765 dc         1 CLA      0.029300
     90 HAA2       79.5813   58.9063   33.3318 dc         1 CLA      0.028700
     91 HAA1       79.8966   60.4333   34.1753 dc         1 CLA      0.028700
     92 H203       83.3287   59.8631   47.5322 dc         1 CLA      0.065600
     93 H202       81.8413   58.8762   47.3638 dc         1 CLA      0.065600
     94 H201       83.3151   58.1797   47.1134 dc         1 CLA      0.065600
     95 H193       81.9219   61.3595   45.7991 dc         1 CLA      0.065600
     96 H192       81.7911   60.7990   44.1150 dc         1 CLA      0.065600
     97 H191       80.7489   60.0215   45.3713 dc         1 CLA      0.065600
     98 H172       82.2331   58.5780   43.6353 dc         1 CLA      0.027600
     99 H171       81.3696   57.9342   44.9206 dc         1 CLA      0.027600
    100 H162       82.9638   56.3165   43.6719 dc         1 CLA      0.002900
    101 H161       83.0824   56.3661   45.3127 dc         1 CLA      0.002900
    102 H152       85.1874   56.3799   44.0859 dc         1 CLA      0.029100
    103 H151       85.1775   57.9591   44.9083 dc         1 CLA      0.029100
    104 H143       87.0883   58.3370   42.9907 dc         1 CLA      0.063600
    105 H142       86.5076   59.7557   42.1573 dc         1 CLA      0.063600
    106 H141       86.2786   59.7437   43.8255 dc         1 CLA      0.063600
    107 H122       84.2924   56.6133   41.5639 dc         1 CLA      0.032500
    108 H121       85.9793   56.4449   41.8220 dc         1 CLA      0.032500
    109 H112       86.2317   58.5739   40.2603 dc         1 CLA      0.006600
    110 H111       84.6344   58.2990   39.6946 dc         1 CLA      0.006600
    111 H102       85.0988   55.9481   39.0116 dc         1 CLA      0.024100
    112 H101       86.7359   56.2417   39.4868 dc         1 CLA      0.024100
    113 HHD        72.9326   57.9553   38.9261 da         1 CLA      0.174300
    114 HHC        76.7780   61.0103   43.1134 da         1 CLA      0.136800
    115 HHB        81.7880   60.8102   38.7884 da         1 CLA      0.138300
    116 HBD        77.6091   58.4237   33.4830 dc         1 CLA      0.107700
    117 HAB        78.7079   61.8010   44.2011 da         1 CLA      0.155200
    118 H93        87.2809   59.0816   38.2115 dc         1 CLA      0.069500
    119 H92        88.1759   57.5207   38.2339 dc         1 CLA      0.069500
    120 H91        87.9442   58.3476   36.7437 dc         1 CLA      0.069500
    121 H8         85.2838   57.9091   37.4262 dc         1 CLA      0.029300
    122 H72        85.2278   55.5413   36.8652 dc         1 CLA      0.044400
    123 H71        86.9121   55.2825   37.0015 dc         1 CLA      0.044400
    124 H62        87.0456   57.1412   35.0683 dc         1 CLA      0.015600
    125 H61        85.2158   57.0702   35.0546 dc         1 CLA      0.015600
    126 H52        86.8478   54.6634   34.5432 dc         1 CLA      0.033200
    127 H51        86.2151   55.7761   33.2753 dc         1 CLA      0.033200
    128 H43        84.1349   52.8702   33.0219 dc         1 CLA      0.037000
    129 H42        85.8200   52.7470   33.5827 dc         1 CLA      0.037000
    130 H41        84.4673   52.6583   34.8429 dc         1 CLA      0.037000
    131 H3A        81.5888   60.5375   36.0053 dc         1 CLA      0.041100
    132 H2A        80.5361   57.8688   35.3285 dc         1 CLA      0.083100
    133 H2         83.3116   55.3083   35.2379 da         1 CLA      0.180900
    134 H18        83.6807   59.8695   45.0588 dc         1 CLA     -0.003900
    135 H13        84.2259   58.7010   42.3965 dc         1 CLA      0.019700
    136 H12        81.9684   55.3504   32.6835 dc         1 CLA      0.120400
    137 H11        83.4839   55.9765   32.1533 dc         1 CLA      0.120400
    138 C1         69.4495   61.6011   50.4340 Z1         2 LUT      0.509236
    139 C2         68.1451   61.5966   51.2241 Z2         2 LUT     -0.434695
    140 C3         67.2268   62.8774   51.2737 Z3         2 LUT      0.437453
    141 O3         67.1489   63.4608   52.5730 S1         2 LUT     -0.547129
    142 C4         67.6628   63.9203   50.2761 Z4         2 LUT     -0.468603
    143 C5         68.2882   63.4439   49.0045 Z5         2 LUT      0.279246
    144 C6         69.1872   62.3925   49.1107 Z6         2 LUT     -0.305473
    145 C7         69.6095   61.7873   47.8721 Z7         2 LUT      0.069402
    146 C8         70.4511   62.4433   47.0333 Z8         2 LUT     -0.191631
    147 C9         70.9395   62.1353   45.6978 Z9         2 LUT      0.196698
    148 C10        71.8336   63.0505   45.0657 Y1         2 LUT     -0.208611
    149 C11        72.4746   63.1076   43.7994 Y2         2 LUT      0.030784
    150 C12        73.6773   63.7240   43.5738 Y3         2 LUT     -0.220316
    151 C13        74.6338   63.6026   42.5012 Y4         2 LUT      0.215937
    152 C14        75.8774   64.1630   42.5403 Y5         2 LUT     -0.185793
    153 C15        76.8802   64.3665   41.5582 Y6         2 LUT     -0.057835
    154 C16        69.9673   60.1278   50.4027 Y7         2 LUT     -0.405615
    155 C17        70.4269   62.4205   51.3118 Y7         2 LUT     -0.405615
    156 C18        67.5933   63.9938   47.7987 Y9         2 LUT     -0.369639
    157 C19        70.3584   60.9707   44.9882 W1         2 LUT     -0.333362
    158 C20        74.0877   63.1102   41.1821 W2         2 LUT     -0.323439
    159 C21        88.0248   66.4216   35.5982 Z1         2 LUT      0.406104
    160 C22        88.6677   65.5324   34.4057 Z2         2 LUT     -0.404965
    161 C23        88.5707   66.1027   33.0144 Z3         2 LUT      0.391255
    162 O23        88.6367   64.9760   32.1372 S1         2 LUT     -0.528210
    163 C24        87.3144   66.8661   32.8230 W6         2 LUT     -0.258361
    164 C25        86.4124   67.1722   33.7835 Z5         2 LUT      0.133546
    165 C26        86.5711   66.6105   35.2192 W8         2 LUT     -0.147008
    166 C27        85.7900   67.4802   36.2624 Z7         2 LUT      0.023843
    167 C28        84.7003   67.0275   36.8780 Z8         2 LUT     -0.216987
    168 C29        84.1701   67.3543   38.1538 Z9         2 LUT      0.206524
    169 C30        83.1305   66.5372   38.4336 Y1         2 LUT     -0.215556
    170 C31        82.2898   66.5747   39.6474 Y2         2 LUT      0.025142
    171 C32        81.1720   65.7946   39.8109 Y3         2 LUT     -0.212209
    172 C33        80.3142   65.8995   40.9284 Y4         2 LUT      0.240937
    173 C34        79.1333   65.2493   40.9024 Y5         2 LUT     -0.218862
    174 C35        77.9555   65.1873   41.7846 Y6         2 LUT     -0.023547
    175 C36        88.8906   67.6983   35.8116 Y7         2 LUT     -0.393485
    176 C37        88.1090   65.5857   36.8216 Y7         2 LUT     -0.393485
    177 C38        85.0885   67.7971   33.3185 Y9         2 LUT     -0.387526
    178 C39        84.7119   68.5078   39.0020 W1         2 LUT     -0.322618
    179 C40        80.7191   66.7847   42.1255 W2         2 LUT     -0.358472
    180 H403       81.6802   66.5632   42.5927 R7         2 LUT      0.097720
    181 H402       80.7360   67.8549   41.8596 R7         2 LUT      0.097720
    182 H401       80.0502   66.7957   43.0090 R7         2 LUT      0.097720
    183 H393       84.4340   69.5274   38.5538 R4         2 LUT      0.082505
    184 H392       84.2766   68.5409   40.0335 R4         2 LUT      0.082505
    185 H391       85.8007   68.4863   39.0851 R4         2 LUT      0.082505
    186 H383       85.1224   68.4386   32.4597 R1         2 LUT      0.104030
    187 H382       84.4295   66.9556   33.0632 R1         2 LUT      0.104030
    188 H381       84.7806   68.4695   34.1483 R1         2 LUT      0.104030
    189 H373       87.7499   66.0703   37.7252 T4         2 LUT      0.089537
    190 H372       87.5401   64.6943   36.6863 T4         2 LUT      0.089537
    191 H371       89.1121   65.1774   37.0305 T4         2 LUT      0.089537
    192 H363       88.3732   68.4042   36.5047 T4         2 LUT      0.089537
    193 H362       89.9248   67.5675   36.3064 T4         2 LUT      0.089537
    194 H361       89.2581   68.1297   34.9739 T4         2 LUT      0.089537
    195 H222       89.6467   65.2291   34.6904 U2         2 LUT      0.127376
    196 H221       88.0906   64.5511   34.3100 U2         2 LUT      0.127376
    197 H203       73.4499   63.8340   40.5463 R7         2 LUT      0.087068
    198 H202       74.8636   62.9205   40.3974 R7         2 LUT      0.087068
    199 H201       73.5071   62.2052   41.1513 R7         2 LUT      0.087068
    200 H193       70.9309   60.6242   44.1399 R4         2 LUT      0.089716
    201 H192       70.2057   60.1373   45.6970 R4         2 LUT      0.089716
    202 H191       69.3880   61.2874   44.5940 R4         2 LUT      0.089716
    203 H183       66.4974   64.2114   47.9550 R1         2 LUT      0.094572
    204 H182       68.0653   65.0465   47.7137 R1         2 LUT      0.094572
    205 H181       67.7490   63.4224   46.8884 R1         2 LUT      0.094572
    206 H173       70.2792   63.5170   51.4034 T4         2 LUT      0.093752
    207 H172       70.1956   62.1575   52.3395 T4         2 LUT      0.093752
    208 H171       71.5172   62.2218   51.0703 T4         2 LUT      0.093752
    209 H163       69.1487   59.4604   50.1369 T4         2 LUT      0.093752
    210 H162       70.7129   59.9702   49.6214 T4         2 LUT      0.093752
    211 H161       70.3776   59.8321   51.3528 T4         2 LUT      0.093752
    212 HO3        66.8309   62.8548   53.2574 Q1         2 LUT      0.300121
    213 H8         70.8340   63.4111   47.4150 U7         2 LUT      0.080784
    214 H7         68.9569   60.9047   47.6057 U6         2 LUT      0.042190
    215 H42        66.7563   64.5711   50.0477 U5         2 LUT      0.145166
    216 H41        68.4334   64.5474   50.7707 U5         2 LUT      0.145166
    217 H35        78.0547   65.6614   42.7591 T3         2 LUT      0.077919
    218 H34        78.8366   64.6659   39.9958 T2         2 LUT      0.073626
    219 H32        80.8047   65.0179   39.0896 T1         2 LUT      0.092510
    220 H31        82.5242   67.3474   40.4319 U9         2 LUT      0.070048
    221 H30        82.8090   65.7055   37.7213 U8         2 LUT      0.085442
    222 H3         66.1362   62.6305   51.0598 U3         2 LUT     -0.031596
    223 H28        84.3971   66.0183   36.4153 U7         2 LUT      0.084728
    224 H27        86.3401   68.2381   36.8008 U6         2 LUT      0.087291
    225 H26        86.0620   65.6913   35.1029 Q6         2 LUT      0.075325
    226 H24        87.2055   67.1553   31.7679 Q5         2 LUT      0.094482
    227 H23        89.2933   66.9404   32.8555 U3         2 LUT     -0.024869
    228 H22        67.5102   60.9409   50.6911 U2         2 LUT      0.127376
    229 H21        68.2378   61.0379   52.1197 U2         2 LUT      0.127376
    230 H15        76.8921   63.7581   40.7072 T3         2 LUT      0.093200
    231 H14        76.0262   64.8025   43.4510 T2         2 LUT      0.068865
    232 H12        74.0953   64.1461   44.5598 T1         2 LUT      0.095507
    233 H11        72.0440   62.4491   43.0051 U9         2 LUT      0.068930
    234 H10        72.0312   63.8856   45.6913 U8         2 LUT      0.083911
    235 H1         88.9146   65.2299   31.2587 Q1         2 LUT      0.297311
@<TRIPOS>BOND
    1     6     1 1
    2     7     2 1
    3     8     3 1
    4     9     4 1
    5    11     4 1
    6    12     6 1
    7    13     9 1
    8    16     9 1
    9    25     5 1
   10    25    16 1
   11    26    10 1
   12    26    17 1
   13    27    18 1
   14    28    14 1
   15    28    19 1
   16    29    12 1
   17    30    13 1
   18    31    24 1
   19    32     1 1
   20    32    25 1
   21    33    21 1
   22    33    26 1
   23    34    22 1
   24    34    27 1
   25    35    23 1
   26    35    28 1
   27    36    12 1
   28    36    24 1
   29    37    13 1
   30    37    15 1
   31    38    31 1
   32    39    20 1
   33    39    32 1
   34    40     2 1
   35    40    33 1
   36    41     3 1
   37    41    34 1
   38    42     4 1
   39    42    35 1
   40    43    38 1
   41    44     5 1
   42    44    17 1
   43    44    39 1
   44    45    10 1
   45    45    18 1
   46    45    40 1
   47    46    19 1
   48    46    41 1
   49    47    14 1
   50    47    16 1
   51    47    42 1
   52    48    38 1
   53    49    48 1
   54    50    49 1
   55    51    50 1
   56    52    51 1
   57    53    51 1
   58    54    53 1
   59    55    54 1
   60    56    55 1
   61    57    56 1
   62    58    56 1
   63    59    58 1
   64    60    59 1
   65    61    60 1
   66    62    61 1
   67    63    61 1
   68    64    27 1
   69    64    46 1
   70    65     5 1
   71    65    10 1
   72    65    64 1
   73    65    14 1
   74    66    23 1
   75    67    23 1
   76    68    23 1
   77    69    22 1
   78    70    22 1
   79    71    22 1
   80    72    21 1
   81    73    21 1
   82    74    21 1
   83    75    20 1
   84    76    20 1
   85    77    20 1
   86    78    15 1
   87    79    15 1
   88    80    15 1
   89    81     8 1
   90    82     8 1
   91    83     8 1
   92    84     7 1
   93    85     7 1
   94    86     6 1
   95    87     6 1
   96    88     3 1
   97    89     3 1
   98    90     1 1
   99    91     1 1
  100    92    63 1
  101    93    63 1
  102    94    63 1
  103    95    62 1
  104    96    62 1
  105    97    62 1
  106    98    60 1
  107    99    60 1
  108   100    59 1
  109   101    59 1
  110   102    58 1
  111   103    58 1
  112   104    57 1
  113   105    57 1
  114   106    57 1
  115   107    55 1
  116   108    55 1
  117   109    54 1
  118   110    54 1
  119   111    53 1
  120   112    53 1
  121   113    19 1
  122   114    18 1
  123   115    17 1
  124   116     9 1
  125   117     2 1
  126   118    52 1
  127   119    52 1
  128   120    52 1
  129   121    51 1
  130   122    50 1
  131   123    50 1
  132   124    49 1
  133   125    49 1
  134   126    48 1
  135   127    48 1
  136   128    43 1
  137   129    43 1
  138   130    43 1
  139   131    39 1
  140   132    32 1
  141   133    31 1
  142   134    61 1
  143   135    56 1
  144   136    24 1
  145   137    24 1
  146   139   138 1
  147   140   139 1
  148   141   140 1
  149   142   140 1
  150   143   142 1
  151   144   138 1
  152   144   143 1
  153   145   144 1
  154   146   145 1
  155   147   146 1
  156   148   147 1
  157   149   148 1
  158   150   149 1
  159   151   150 1
  160   152   151 1
  161   153   152 1
  162   154   138 1
  163   155   138 1
  164   156   143 1
  165   157   147 1
  166   158   151 1
  167   160   159 1
  168   161   160 1
  169   162   161 1
  170   163   161 1
  171   164   163 1
  172   165   159 1
  173   165   164 1
  174   166   165 1
  175   167   166 1
  176   168   167 1
  177   169   168 1
  178   170   169 1
  179   171   170 1
  180   172   171 1
  181   173   172 1
  182   174   153 1
  183   174   173 1
  184   175   159 1
  185   176   159 1
  186   177   164 1
  187   178   168 1
  188   179   172 1
  189   180   179 1
  190   181   179 1
  191   182   179 1
  192   183   178 1
  193   184   178 1
  194   185   178 1
  195   186   177 1
  196   187   177 1
  197   188   177 1
  198   189   176 1
  199   190   176 1
  200   191   176 1
  201   192   175 1
  202   193   175 1
  203   194   175 1
  204   195   160 1
  205   196   160 1
  206   197   158 1
  207   198   158 1
  208   199   158 1
  209   200   157 1
  210   201   157 1
  211   202   157 1
  212   203   156 1
  213   204   156 1
  214   205   156 1
  215   206   155 1
  216   207   155 1
  217   208   155 1
  218   209   154 1
  219   210   154 1
  220   211   154 1
  221   212   141 1
  222   213   146 1
  223   214   145 1
  224   215   142 1
  225   216   142 1
  226   217   174 1
  227   218   173 1
  228   219   171 1
  229   220   170 1
  230   221   169 1
  231   222   140 1
  232   223   167 1
  233   224   166 1
  234   225   165 1
  235   226   163 1
  236   227   161 1
  237   228   139 1
  238   229   139 1
  239   230   153 1
  240   231   152 1
  241   232   150 1
  242   233   149 1
  243   234   148 1
  244   235   162 1
  245   65    153 1
  246   65    174 1
@<TRIPOS>SUBSTRUCTURE
      1 CLA               1 ****               0 ****  **** 
      2 LUT             138 ****               0 ****  **** 
