@<TRIPOS>MOLECULE
Cpptraj generated mol2 file.
  235   246     2     0     0
SMALL
USER_CHARGES


@<TRIPOS>ATOM
      1 CAA        78.9805   57.8309   34.7938 a2         1 CLA     -0.055900
      2 CAB        77.8624   61.4626   43.8246 c8         1 CLA     -0.148500
      3 CAC        71.3939   56.8523   42.4956 a2         1 CLA     -0.012600
      4 CAD        75.0986   54.8778   35.6169 ck         1 CLA      0.398800
      5 NA         77.7185   58.0778   38.1343 ns         1 CLA     -0.225500
      6 CBA        80.3217   57.5813   34.0744 a2         1 CLA     -0.135000
      7 CBB        78.8652   61.4449   44.7483 c0         1 CLA     -0.395200
      8 CBC        71.6757   55.4358   42.7180 a3         1 CLA     -0.037700
      9 CBD        76.4759   55.5350   35.3918 a1         1 CLA     -0.053900
     10 NB         77.2587   59.5881   40.6095 nm         1 CLA     -0.295700
     11 OBD        74.6597   54.1285   34.7701 o2         1 CLA     -0.494600
     12 CGA        80.8801   56.1169   33.9050 c4         1 CLA      0.827000
     13 CGD        77.5718   54.4978   35.0442 c4         1 CLA      0.655300
     14 ND         75.0823   56.8848   38.5292 nm         1 CLA     -0.291600
     15 CED        78.2706   52.2550   35.7849 a3         1 CLA      0.005400
     16 CHA        76.6468   56.5036   36.6378 cs         1 CLA     -0.123800
     17 CHB        79.2896   59.6764   39.2289 aa         1 CLA     -0.291900
     18 CHC        75.7194   59.7210   42.5486 aa         1 CLA     -0.090400
     19 CHD        72.9980   56.7530   39.8014 aa         1 CLA     -0.052000
     20 CMA        81.1833   57.9998   37.7579 a3         1 CLA     -0.230700
     21 CMB        80.4219   61.3145   41.5383 a3         1 CLA     -0.180800
     22 CMC        73.1930   58.8819   44.4402 a3         1 CLA     -0.134000
     23 CMD        72.3019   54.5826   37.5505 a3         1 CLA     -0.141100
     24 C1         82.0691   54.4205   35.1672 a2         1 CLA      0.023000
     25 C1A        77.7201   57.2749   36.9972 ac         1 CLA     -0.015100
     26 C1B        78.5655   59.9741   40.3752 cr         1 CLA      0.054700
     27 C1C        74.6555   58.8843   42.2241 cn         1 CLA     -0.005600
     28 C1D        73.7780   56.3706   38.6824 ap         1 CLA     -0.047300
     29 O1A        80.8120   55.4727   32.8951 o2         1 CLA     -0.610800
     30 O1D        78.2265   54.4323   34.0284 o2         1 CLA     -0.558200
     31 C2         81.4837   53.9070   36.4626 c8         1 CLA     -0.325100
     32 C2A        79.0453   57.4198   36.2692 a1         1 CLA      0.098600
     33 C2B        79.0303   60.7178   41.5377 cb         1 CLA      0.088500
     34 C2C        73.3935   58.5433   42.9709 cb         1 CLA      0.053700
     35 C2D        73.4550   55.4092   37.6442 cb         1 CLA      0.058900
     36 O2A        81.5097   55.7893   35.0726 o1         1 CLA     -0.437200
     37 O2D        77.5464   53.5166   36.0503 o1         1 CLA     -0.357600
     38 C3         82.0852   53.2159   37.4126 c5         1 CLA      0.031200
     39 C3A        79.8047   58.4362   37.1785 a1         1 CLA      0.166800
     40 C3B        78.0094   60.7980   42.4584 cb         1 CLA      0.035000
     41 C3C        72.6361   57.6175   42.2219 cb         1 CLA     -0.089900
     42 C3D        74.5365   55.3870   36.8335 cb         1 CLA     -0.035900
     43 C4         82.0313   51.7286   37.3416 a3         1 CLA     -0.053300
     44 C4A        78.8476   58.7723   38.2850 ac         1 CLA      0.001800
     45 C4B        76.9326   59.9992   41.8584 cn         1 CLA     -0.020900
     46 C4C        73.3245   57.5136   41.0162 cr         1 CLA     -0.044400
     47 C4D        75.4929   56.3355   37.3666 c6         1 CLA     -0.046000
     48 C5         82.6726   53.7790   38.7127 a2         1 CLA     -0.070400
     49 C6         83.3798   55.1272   38.5601 a2         1 CLA      0.043900
     50 C7         83.8631   55.6879   39.9436 a2         1 CLA     -0.150000
     51 C8         84.5448   56.9918   40.0145 a1         1 CLA      0.064200
     52 C9         85.8987   57.0398   39.2299 a3         1 CLA     -0.259300
     53 C10        84.6640   57.5999   41.4540 a2         1 CLA     -0.071900
     54 C11        83.3025   58.0722   41.9733 a2         1 CLA      0.014500
     55 C12        83.3770   58.9229   43.2607 a2         1 CLA     -0.112100
     56 C13        84.1970   58.3549   44.4512 a1         1 CLA      0.089200
     57 C14        83.4449   57.2535   45.2707 a3         1 CLA     -0.239100
     58 C15        84.6575   59.5100   45.4579 a2         1 CLA     -0.102200
     59 C16        83.5314   60.3542   45.9852 a2         1 CLA      0.023900
     60 C17        83.9914   61.2392   47.1837 a2         1 CLA     -0.105700
     61 C18        82.7806   62.1746   47.7578 a1         1 CLA      0.206800
     62 C19        81.9356   61.4135   48.8105 a3         1 CLA     -0.280100
     63 C20        83.3755   63.4739   48.3608 a3         1 CLA     -0.280100
     64 NC         74.5601   58.2006   41.0468 nx         1 CLA     -0.309200
     65 MG         76.0163   58.3538   39.4692 mg         1 CLA      0.895000
     66 HMD3       72.4541   53.9411   36.6332 dc         1 CLA      0.064300
     67 HMD2       72.3348   53.9462   38.4214 dc         1 CLA      0.064300
     68 HMD1       71.4425   55.2449   37.4277 dc         1 CLA      0.064300
     69 HMC3       74.1734   58.5509   44.7900 dc         1 CLA      0.052100
     70 HMC2       73.0572   59.9071   44.6084 dc         1 CLA      0.052100
     71 HMC1       72.3435   58.3593   44.8106 dc         1 CLA      0.052100
     72 HMB3       80.4552   62.2105   42.1920 dc         1 CLA      0.063600
     73 HMB2       81.0141   60.5118   41.9923 dc         1 CLA      0.063600
     74 HMB1       80.7682   61.6726   40.5742 dc         1 CLA      0.063600
     75 HMA3       81.7546   58.6866   38.4569 dc         1 CLA      0.058300
     76 HMA2       80.9951   57.0805   38.2657 dc         1 CLA      0.058300
     77 HMA1       81.8618   57.7993   36.9505 dc         1 CLA      0.058300
     78 HED3       77.8831   51.7998   34.8850 dc         1 CLA      0.079300
     79 HED2       79.3593   52.3109   35.6692 dc         1 CLA      0.079300
     80 HED1       77.9249   51.5968   36.5952 dc         1 CLA      0.079300
     81 HBC3       70.7787   54.9247   42.9653 dc         1 CLA      0.016300
     82 HBC2       71.9009   54.9540   41.7256 dc         1 CLA      0.016300
     83 HBC1       72.5221   55.3579   43.4050 dc         1 CLA      0.016300
     84 HBB2       78.7944   61.9331   45.6955 da         1 CLA      0.183000
     85 HBB1       79.9170   61.0033   44.5213 da         1 CLA      0.183000
     86 HBA2       80.1432   57.9390   33.0667 dc         1 CLA      0.029400
     87 HBA1       81.0008   58.2495   34.4796 dc         1 CLA      0.029400
     88 HAC2       71.0086   57.3176   43.4455 dc         1 CLA      0.029300
     89 HAC1       70.6967   56.9496   41.6293 dc         1 CLA      0.029300
     90 HAA2       78.1878   57.2760   34.2294 dc         1 CLA      0.028700
     91 HAA1       78.7973   58.9590   34.6944 dc         1 CLA      0.028700
     92 H203       83.9872   63.1552   49.1993 dc         1 CLA      0.065600
     93 H202       83.9692   64.0192   47.6052 dc         1 CLA      0.065600
     94 H201       82.5185   64.0727   48.6852 dc         1 CLA      0.065600
     95 H193       81.1763   62.1135   49.1789 dc         1 CLA      0.065600
     96 H192       81.4394   60.6138   48.2509 dc         1 CLA      0.065600
     97 H191       82.5535   61.0517   49.6292 dc         1 CLA      0.065600
     98 H172       84.2815   60.6438   48.0342 dc         1 CLA      0.027600
     99 H171       84.8106   61.7974   46.7719 dc         1 CLA      0.027600
    100 H162       83.1940   61.0680   45.3055 dc         1 CLA      0.002900
    101 H161       82.6777   59.6990   46.2779 dc         1 CLA      0.002900
    102 H152       85.1478   59.0077   46.3104 dc         1 CLA      0.029100
    103 H151       85.4383   60.1315   44.9846 dc         1 CLA      0.029100
    104 H143       82.9258   56.5289   44.6788 dc         1 CLA      0.063600
    105 H142       84.2180   56.7883   45.9206 dc         1 CLA      0.063600
    106 H141       82.6703   57.6303   45.9147 dc         1 CLA      0.063600
    107 H122       83.7896   59.8685   42.9298 dc         1 CLA      0.032500
    108 H121       82.3786   59.1550   43.5502 dc         1 CLA      0.032500
    109 H112       82.8301   58.6054   41.1340 dc         1 CLA      0.006600
    110 H111       82.7997   57.1566   42.2144 dc         1 CLA      0.006600
    111 H102       85.0841   56.9713   42.2198 dc         1 CLA      0.024100
    112 H101       85.3933   58.4253   41.5050 dc         1 CLA      0.024100
    113 HHD        72.0289   56.2732   39.9166 da         1 CLA      0.174300
    114 HHC        75.4930   60.2792   43.4724 da         1 CLA      0.136800
    115 HHB        80.2587   60.1854   39.1571 da         1 CLA      0.138300
    116 HBD        76.4313   56.1182   34.5280 dc         1 CLA      0.107700
    117 HAB        76.8829   61.7543   44.2454 da         1 CLA      0.155200
    118 H93        86.5811   57.9058   39.4719 dc         1 CLA      0.069500
    119 H92        86.5658   56.1775   39.4504 dc         1 CLA      0.069500
    120 H91        85.6791   57.1346   38.1597 dc         1 CLA      0.069500
    121 H8         83.8347   57.6421   39.6094 dc         1 CLA      0.029300
    122 H72        83.0082   55.6222   40.6323 dc         1 CLA      0.044400
    123 H71        84.5407   54.9201   40.3367 dc         1 CLA      0.044400
    124 H62        84.2149   54.9321   37.8773 dc         1 CLA      0.015600
    125 H61        82.7303   55.8074   38.0365 dc         1 CLA      0.015600
    126 H52        81.7504   53.9135   39.3114 dc         1 CLA      0.033200
    127 H51        83.3123   53.0514   39.3191 dc         1 CLA      0.033200
    128 H43        81.4315   51.4378   38.1936 dc         1 CLA      0.037000
    129 H42        81.5617   51.3198   36.4387 dc         1 CLA      0.037000
    130 H41        83.0640   51.2842   37.5312 dc         1 CLA      0.037000
    131 H3A        80.0288   59.2907   36.6334 dc         1 CLA      0.041100
    132 H2A        79.4873   56.4853   36.4474 dc         1 CLA      0.083100
    133 H2         80.4884   54.2119   36.7585 da         1 CLA      0.180900
    134 H18        82.0609   62.3838   46.9211 dc         1 CLA     -0.003900
    135 H13        85.2078   58.0647   44.1292 dc         1 CLA      0.019700
    136 H12        81.8629   53.7372   34.3420 dc         1 CLA      0.120400
    137 H11        83.1801   54.4335   35.4481 dc         1 CLA      0.120400
    138 C1         68.0743   60.7693   50.6882 Z1         2 LUT      0.509236
    139 C2         66.6886   60.5425   51.4053 Z2         2 LUT     -0.434695
    140 C3         65.9960   61.8555   51.6883 Z3         2 LUT      0.437453
    141 O3         66.1647   62.1515   53.0728 S1         2 LUT     -0.547129
    142 C4         66.4892   63.0551   50.8381 Z4         2 LUT     -0.468603
    143 C5         67.1832   62.7321   49.4673 Z5         2 LUT      0.279246
    144 C6         67.8571   61.5933   49.3832 Z6         2 LUT     -0.305473
    145 C7         68.5058   61.0367   48.0865 Z7         2 LUT      0.069402
    146 C8         69.0945   61.7664   47.1268 Z8         2 LUT     -0.191631
    147 C9         69.5787   61.2413   45.8725 Z9         2 LUT      0.196698
    148 C10        70.6382   62.0016   45.2964 Y1         2 LUT     -0.208611
    149 C11        71.3758   61.7923   44.0481 Y2         2 LUT      0.030784
    150 C12        72.4326   62.5951   43.6699 Y3         2 LUT     -0.220316
    151 C13        73.3716   62.4053   42.5905 Y4         2 LUT      0.215937
    152 C14        74.5295   63.0680   42.6903 Y5         2 LUT     -0.185793
    153 C15        75.6489   63.0784   41.7220 Y6         2 LUT     -0.057835
    154 C16        68.7844   59.3624   50.4769 Y7         2 LUT     -0.405615
    155 C17        68.9921   61.5340   51.6917 Y7         2 LUT     -0.405615
    156 C18        66.7979   63.6258   48.2616 Y9         2 LUT     -0.369639
    157 C19        69.0368   59.9515   45.2624 W1         2 LUT     -0.333362
    158 C20        72.9781   61.5999   41.3444 W2         2 LUT     -0.323439
    159 C21        87.0819   65.0734   35.9209 Z1         2 LUT      0.406104
    160 C22        87.8161   64.5008   34.6953 Z2         2 LUT     -0.404965
    161 C23        87.9312   65.4264   33.4425 Z3         2 LUT      0.391255
    162 O23        88.2459   64.4724   32.3860 S1         2 LUT     -0.528210
    163 C24        86.6446   66.1107   33.1492 W6         2 LUT     -0.258361
    164 C25        85.6168   66.1579   34.0138 Z5         2 LUT      0.133546
    165 C26        85.6063   65.4217   35.4007 W8         2 LUT     -0.147008
    166 C27        84.6790   66.0530   36.4102 Z7         2 LUT      0.023843
    167 C28        83.6228   65.4353   37.0228 Z8         2 LUT     -0.216987
    168 C29        82.9090   65.7855   38.2117 Z9         2 LUT      0.206524
    169 C30        81.8523   64.9731   38.6615 Y1         2 LUT     -0.215556
    170 C31        80.9852   65.2064   39.6550 Y2         2 LUT      0.025142
    171 C32        79.8281   64.6106   40.0086 Y3         2 LUT     -0.212209
    172 C33        78.9668   64.7856   41.1490 Y4         2 LUT      0.240937
    173 C34        77.7494   64.0371   41.1403 Y5         2 LUT     -0.218862
    174 C35        76.5814   64.0014   42.0197 Y6         2 LUT     -0.023547
    175 C36        87.7948   66.2253   36.4962 Y7         2 LUT     -0.393485
    176 C37        87.0386   64.0070   36.9977 Y7         2 LUT     -0.393485
    177 C38        84.3155   66.8564   33.6403 Y9         2 LUT     -0.387526
    178 C39        83.3032   67.0391   38.8516 W1         2 LUT     -0.322618
    179 C40        79.3447   65.8338   42.1817 W2         2 LUT     -0.358472
    180 H403       78.8181   65.7294   43.1146 R7         2 LUT      0.097720
    181 H402       80.3506   65.9861   42.5642 R7         2 LUT      0.097720
    182 H401       79.0274   66.8238   41.8679 R7         2 LUT      0.097720
    183 H393       83.0368   67.0309   39.9273 R4         2 LUT      0.082505
    184 H392       84.3752   67.2466   38.7406 R4         2 LUT      0.082505
    185 H391       82.7631   67.8270   38.3694 R4         2 LUT      0.082505
    186 H383       83.4931   66.1481   33.4564 R1         2 LUT      0.104030
    187 H382       84.0377   67.5613   34.4805 R1         2 LUT      0.104030
    188 H381       84.4765   67.5103   32.7735 R1         2 LUT      0.104030
    189 H373       88.0199   63.7316   37.3650 T4         2 LUT      0.089537
    190 H372       86.4529   64.2561   37.8192 T4         2 LUT      0.089537
    191 H371       86.6883   63.0035   36.7282 T4         2 LUT      0.089537
    192 H363       87.9866   66.9095   35.7261 T4         2 LUT      0.089537
    193 H362       87.2827   66.6527   37.3961 T4         2 LUT      0.089537
    194 H361       88.8109   65.9513   36.7799 T4         2 LUT      0.089537
    195 H222       88.7367   64.0691   35.0834 U2         2 LUT      0.127376
    196 H221       87.2468   63.6523   34.3242 U2         2 LUT      0.127376
    197 H203       72.6270   60.5335   41.5312 R7         2 LUT      0.087068
    198 H202       72.2489   62.1843   40.7896 R7         2 LUT      0.087068
    199 H201       73.7561   61.5906   40.5741 R7         2 LUT      0.087068
    200 H193       69.1981   59.1166   45.9352 R4         2 LUT      0.089716
    201 H192       67.9209   59.9237   45.1434 R4         2 LUT      0.089716
    202 H191       69.4970   59.5987   44.3438 R4         2 LUT      0.089716
    203 H183       65.7962   64.0091   48.4472 R1         2 LUT      0.094572
    204 H182       67.5613   64.4162   47.9409 R1         2 LUT      0.094572
    205 H181       66.8083   62.9382   47.3973 R1         2 LUT      0.094572
    206 H173       69.9474   61.6773   51.2531 T4         2 LUT      0.093752
    207 H172       68.7429   62.5241   51.8969 T4         2 LUT      0.093752
    208 H171       69.1541   61.0397   52.6438 T4         2 LUT      0.093752
    209 H163       68.7599   58.6644   51.2818 T4         2 LUT      0.093752
    210 H162       68.3121   58.8182   49.6550 T4         2 LUT      0.093752
    211 H161       69.8169   59.3953   50.2439 T4         2 LUT      0.093752
    212 HO3        65.5469   61.5577   53.5607 Q1         2 LUT      0.300121
    213 H8         69.3737   62.7680   47.3607 U7         2 LUT      0.080784
    214 H7         68.3975   59.9972   47.8434 U6         2 LUT      0.042190
    215 H42        65.5739   63.5621   50.5689 U5         2 LUT      0.145166
    216 H41        67.1126   63.7823   51.3538 U5         2 LUT      0.145166
    217 H35        76.4939   64.7056   42.8316 T3         2 LUT      0.077919
    218 H34        77.6872   63.3575   40.3173 T2         2 LUT      0.073626
    219 H32        79.6065   63.8390   39.2521 T1         2 LUT      0.092510
    220 H31        81.2418   66.0146   40.3299 U9         2 LUT      0.070048
    221 H30        81.7223   64.0720   38.1329 U8         2 LUT      0.085442
    222 H3         64.9687   61.7193   51.3625 U3         2 LUT     -0.031596
    223 H28        83.2471   64.5261   36.5274 U7         2 LUT      0.084728
    224 H27        85.0730   66.9965   36.7047 U6         2 LUT      0.087291
    225 H26        85.1377   64.4951   35.1476 Q6         2 LUT      0.075325
    226 H24        86.5110   66.4429   32.1247 Q5         2 LUT      0.094482
    227 H23        88.7008   66.2488   33.5715 U3         2 LUT     -0.024869
    228 H22        66.0946   60.0093   50.7187 U2         2 LUT      0.127376
    229 H21        66.6663   59.8570   52.2107 U2         2 LUT      0.127376
    230 H15        75.7659   62.4328   40.8968 T3         2 LUT      0.093200
    231 H14        74.6690   63.7694   43.5462 T2         2 LUT      0.068865
    232 H12        72.7062   63.3875   44.4204 T1         2 LUT      0.095507
    233 H11        71.1097   60.9604   43.4482 U9         2 LUT      0.068930
    234 H10        70.9414   62.9400   45.8461 U8         2 LUT      0.083911
    235 H1         88.4563   64.8636   31.5343 Q1         2 LUT      0.297311
@<TRIPOS>BOND
    1     6     1 1
    2     7     2 1
    3     8     3 1
    4     9     4 1
    5    11     4 1
    6    12     6 1
    7    13     9 1
    8    16     9 1
    9    25     5 1
   10    25    16 1
   11    26    10 1
   12    26    17 1
   13    27    18 1
   14    28    14 1
   15    28    19 1
   16    29    12 1
   17    30    13 1
   18    31    24 1
   19    32     1 1
   20    32    25 1
   21    33    21 1
   22    33    26 1
   23    34    22 1
   24    34    27 1
   25    35    23 1
   26    35    28 1
   27    36    12 1
   28    36    24 1
   29    37    13 1
   30    37    15 1
   31    38    31 1
   32    39    20 1
   33    39    32 1
   34    40     2 1
   35    40    33 1
   36    41     3 1
   37    41    34 1
   38    42     4 1
   39    42    35 1
   40    43    38 1
   41    44     5 1
   42    44    17 1
   43    44    39 1
   44    45    10 1
   45    45    18 1
   46    45    40 1
   47    46    19 1
   48    46    41 1
   49    47    14 1
   50    47    16 1
   51    47    42 1
   52    48    38 1
   53    49    48 1
   54    50    49 1
   55    51    50 1
   56    52    51 1
   57    53    51 1
   58    54    53 1
   59    55    54 1
   60    56    55 1
   61    57    56 1
   62    58    56 1
   63    59    58 1
   64    60    59 1
   65    61    60 1
   66    62    61 1
   67    63    61 1
   68    64    27 1
   69    64    46 1
   70    65     5 1
   71    65    10 1
   72    65    64 1
   73    65    14 1
   74    66    23 1
   75    67    23 1
   76    68    23 1
   77    69    22 1
   78    70    22 1
   79    71    22 1
   80    72    21 1
   81    73    21 1
   82    74    21 1
   83    75    20 1
   84    76    20 1
   85    77    20 1
   86    78    15 1
   87    79    15 1
   88    80    15 1
   89    81     8 1
   90    82     8 1
   91    83     8 1
   92    84     7 1
   93    85     7 1
   94    86     6 1
   95    87     6 1
   96    88     3 1
   97    89     3 1
   98    90     1 1
   99    91     1 1
  100    92    63 1
  101    93    63 1
  102    94    63 1
  103    95    62 1
  104    96    62 1
  105    97    62 1
  106    98    60 1
  107    99    60 1
  108   100    59 1
  109   101    59 1
  110   102    58 1
  111   103    58 1
  112   104    57 1
  113   105    57 1
  114   106    57 1
  115   107    55 1
  116   108    55 1
  117   109    54 1
  118   110    54 1
  119   111    53 1
  120   112    53 1
  121   113    19 1
  122   114    18 1
  123   115    17 1
  124   116     9 1
  125   117     2 1
  126   118    52 1
  127   119    52 1
  128   120    52 1
  129   121    51 1
  130   122    50 1
  131   123    50 1
  132   124    49 1
  133   125    49 1
  134   126    48 1
  135   127    48 1
  136   128    43 1
  137   129    43 1
  138   130    43 1
  139   131    39 1
  140   132    32 1
  141   133    31 1
  142   134    61 1
  143   135    56 1
  144   136    24 1
  145   137    24 1
  146   139   138 1
  147   140   139 1
  148   141   140 1
  149   142   140 1
  150   143   142 1
  151   144   138 1
  152   144   143 1
  153   145   144 1
  154   146   145 1
  155   147   146 1
  156   148   147 1
  157   149   148 1
  158   150   149 1
  159   151   150 1
  160   152   151 1
  161   153   152 1
  162   154   138 1
  163   155   138 1
  164   156   143 1
  165   157   147 1
  166   158   151 1
  167   160   159 1
  168   161   160 1
  169   162   161 1
  170   163   161 1
  171   164   163 1
  172   165   159 1
  173   165   164 1
  174   166   165 1
  175   167   166 1
  176   168   167 1
  177   169   168 1
  178   170   169 1
  179   171   170 1
  180   172   171 1
  181   173   172 1
  182   174   153 1
  183   174   173 1
  184   175   159 1
  185   176   159 1
  186   177   164 1
  187   178   168 1
  188   179   172 1
  189   180   179 1
  190   181   179 1
  191   182   179 1
  192   183   178 1
  193   184   178 1
  194   185   178 1
  195   186   177 1
  196   187   177 1
  197   188   177 1
  198   189   176 1
  199   190   176 1
  200   191   176 1
  201   192   175 1
  202   193   175 1
  203   194   175 1
  204   195   160 1
  205   196   160 1
  206   197   158 1
  207   198   158 1
  208   199   158 1
  209   200   157 1
  210   201   157 1
  211   202   157 1
  212   203   156 1
  213   204   156 1
  214   205   156 1
  215   206   155 1
  216   207   155 1
  217   208   155 1
  218   209   154 1
  219   210   154 1
  220   211   154 1
  221   212   141 1
  222   213   146 1
  223   214   145 1
  224   215   142 1
  225   216   142 1
  226   217   174 1
  227   218   173 1
  228   219   171 1
  229   220   170 1
  230   221   169 1
  231   222   140 1
  232   223   167 1
  233   224   166 1
  234   225   165 1
  235   226   163 1
  236   227   161 1
  237   228   139 1
  238   229   139 1
  239   230   153 1
  240   231   152 1
  241   232   150 1
  242   233   149 1
  243   234   148 1
  244   235   162 1
  245   65    153 1
  246   65    174 1
@<TRIPOS>SUBSTRUCTURE
      1 CLA               1 ****               0 ****  **** 
      2 LUT             138 ****               0 ****  **** 
