@<TRIPOS>MOLECULE
Cpptraj generated mol2 file.
  235   246     2     0     0
SMALL
USER_CHARGES


@<TRIPOS>ATOM
      1 CAA        78.0868   57.5810   33.2033 a2         1 CLA     -0.055900
      2 CAB        78.7965   61.0719   42.2561 c8         1 CLA     -0.148500
      3 CAC        71.4561   57.3060   41.9683 a2         1 CLA     -0.012600
      4 CAD        73.7331   55.0041   34.5064 ck         1 CLA      0.398800
      5 NA         77.0559   57.9079   36.6460 ns         1 CLA     -0.225500
      6 CBA        79.2520   57.1158   32.3486 a2         1 CLA     -0.135000
      7 CBB        80.0563   60.8966   42.8217 c0         1 CLA     -0.395200
      8 CBC        71.5523   55.7991   41.6696 a3         1 CLA     -0.037700
      9 CBD        75.2120   55.6057   34.1365 a1         1 CLA     -0.053900
     10 NB         77.0894   59.6709   39.0925 nm         1 CLA     -0.295700
     11 OBD        73.2268   54.0471   33.9205 o2         1 CLA     -0.494600
     12 CGA        79.4910   55.6432   31.9891 c4         1 CLA      0.827000
     13 CGD        76.1770   54.5755   33.8773 c4         1 CLA      0.655300
     14 ND         74.1923   57.2714   37.1760 nm         1 CLA     -0.291600
     15 CED        77.5074   52.8560   34.8521 a3         1 CLA      0.005400
     16 CHA        75.6168   56.5887   35.2201 cs         1 CLA     -0.123800
     17 CHB        78.8924   59.2800   37.5195 aa         1 CLA     -0.291900
     18 CHC        75.9104   59.9191   41.2587 aa         1 CLA     -0.090400
     19 CHD        72.4444   57.2546   38.9353 aa         1 CLA     -0.052000
     20 CMA        80.4562   57.2140   36.0069 a3         1 CLA     -0.230700
     21 CMB        80.5314   61.3063   39.3253 a3         1 CLA     -0.180800
     22 CMC        73.5400   59.3512   43.4214 a3         1 CLA     -0.134000
     23 CMD        70.9589   55.4697   36.8118 a3         1 CLA     -0.141100
     24 C1         80.8325   53.8988   32.8948 a2         1 CLA      0.023000
     25 C1A        76.8028   57.2370   35.4598 ac         1 CLA     -0.015100
     26 C1B        78.3661   59.8803   38.6502 cr         1 CLA      0.054700
     27 C1C        74.6624   59.1735   40.9967 cn         1 CLA     -0.005600
     28 C1D        72.9522   56.8895   37.6450 ap         1 CLA     -0.047300
     29 O1A        79.2845   55.0390   30.9506 o2         1 CLA     -0.610800
     30 O1D        76.7646   54.3514   32.8099 o2         1 CLA     -0.558200
     31 C2         81.5652   53.7537   34.1526 c8         1 CLA     -0.325100
     32 C2A        78.1054   57.0665   34.6902 a1         1 CLA      0.098600
     33 C2B        79.1247   60.7445   39.5711 cb         1 CLA      0.088500
     34 C2C        73.5437   58.8913   41.9656 cb         1 CLA      0.053700
     35 C2D        72.3331   55.9979   36.7087 cb         1 CLA      0.058900
     36 O2A        80.2788   55.1789   33.0505 o1         1 CLA     -0.437200
     37 O2D        76.4264   53.8360   34.9541 o1         1 CLA     -0.357600
     38 C3         82.1214   52.6219   34.6619 c5         1 CLA      0.031200
     39 C3A        79.1925   57.8753   35.4500 a1         1 CLA      0.166800
     40 C3B        78.3906   60.6837   40.7960 cb         1 CLA      0.035000
     41 C3C        72.6452   58.0258   41.3633 cb         1 CLA     -0.089900
     42 C3D        73.3640   55.7860   35.7193 cb         1 CLA     -0.035900
     43 C4         81.3889   51.7072   35.6070 a3         1 CLA     -0.053300
     44 C4A        78.3444   58.3732   36.6455 ac         1 CLA      0.001800
     45 C4B        77.0345   60.1473   40.4314 cn         1 CLA     -0.020900
     46 C4C        73.1335   57.9465   39.9536 cr         1 CLA     -0.044400
     47 C4D        74.4524   56.5987   36.0564 c6         1 CLA     -0.046000
     48 C5         83.5711   52.3168   34.3720 a2         1 CLA     -0.070400
     49 C6         84.7075   53.1644   34.9823 a2         1 CLA      0.043900
     50 C7         84.6377   53.2765   36.5121 a2         1 CLA     -0.150000
     51 C8         85.2900   54.5783   37.0523 a1         1 CLA      0.064200
     52 C9         86.8204   54.6538   36.8072 a3         1 CLA     -0.259300
     53 C10        85.0409   54.7025   38.5731 a2         1 CLA     -0.071900
     54 C11        83.5678   55.1527   38.9586 a2         1 CLA      0.014500
     55 C12        83.4191   55.6333   40.4120 a2         1 CLA     -0.112100
     56 C13        81.9885   56.1320   40.8913 a1         1 CLA      0.089200
     57 C14        81.3501   57.2951   40.0383 a3         1 CLA     -0.239100
     58 C15        82.1015   56.5075   42.4068 a2         1 CLA     -0.102200
     59 C16        82.8212   57.7982   42.7024 a2         1 CLA      0.023900
     60 C17        82.9160   58.0595   44.2021 a2         1 CLA     -0.105700
     61 C18        83.5202   59.3766   44.6989 a1         1 CLA      0.206800
     62 C19        83.1320   59.7169   46.1425 a3         1 CLA     -0.280100
     63 C20        85.0666   59.3414   44.5141 a3         1 CLA     -0.280100
     64 NC         74.3362   58.5730   39.8062 nx         1 CLA     -0.309200
     65 MG         75.6120   58.4601   38.1137 mg         1 CLA      0.895000
     66 HMD3       70.8956   54.5394   36.2474 dc         1 CLA      0.064300
     67 HMD2       70.6961   55.3214   37.8725 dc         1 CLA      0.064300
     68 HMD1       70.2126   56.1893   36.4806 dc         1 CLA      0.064300
     69 HMC3       72.5573   59.3650   43.7805 dc         1 CLA      0.052100
     70 HMC2       74.1538   58.5906   43.8498 dc         1 CLA      0.052100
     71 HMC1       73.9903   60.3138   43.3965 dc         1 CLA      0.052100
     72 HMB3       80.8148   62.1706   39.8052 dc         1 CLA      0.063600
     73 HMB2       81.1760   60.4454   39.3372 dc         1 CLA      0.063600
     74 HMB1       80.3764   61.5594   38.2301 dc         1 CLA      0.063600
     75 HMA3       81.0390   57.6693   36.8440 dc         1 CLA      0.058300
     76 HMA2       80.0699   56.3941   36.5275 dc         1 CLA      0.058300
     77 HMA1       81.0930   56.9183   35.1855 dc         1 CLA      0.058300
     78 HED3       77.4247   52.0386   35.6210 dc         1 CLA      0.079300
     79 HED2       77.6069   52.3247   33.9027 dc         1 CLA      0.079300
     80 HED1       78.4078   53.3733   35.0256 dc         1 CLA      0.079300
     81 HBC3       72.6496   55.5061   41.5263 dc         1 CLA      0.016300
     82 HBC2       71.0540   55.2615   42.3872 dc         1 CLA      0.016300
     83 HBC1       71.0546   55.6815   40.7244 dc         1 CLA      0.016300
     84 HBB2       80.3452   61.1112   43.9209 da         1 CLA      0.183000
     85 HBB1       80.8450   60.3388   42.3125 da         1 CLA      0.183000
     86 HBA2       79.1136   57.5731   31.3862 dc         1 CLA      0.029400
     87 HBA1       80.1626   57.5032   32.8615 dc         1 CLA      0.029400
     88 HAC2       71.3893   57.4886   43.0794 dc         1 CLA      0.029300
     89 HAC1       70.5448   57.7509   41.6612 dc         1 CLA      0.029300
     90 HAA2       77.2656   57.2220   32.6165 dc         1 CLA      0.028700
     91 HAA1       77.8950   58.6808   33.2072 dc         1 CLA      0.028700
     92 H203       85.5058   60.3282   44.7211 dc         1 CLA      0.065600
     93 H202       85.5496   58.5415   45.0545 dc         1 CLA      0.065600
     94 H201       85.2205   59.0950   43.4837 dc         1 CLA      0.065600
     95 H193       83.8138   59.2263   46.8200 dc         1 CLA      0.065600
     96 H192       83.3811   60.8141   46.1679 dc         1 CLA      0.065600
     97 H191       82.0250   59.6436   46.2794 dc         1 CLA      0.065600
     98 H172       81.8710   58.1529   44.5029 dc         1 CLA      0.027600
     99 H171       83.4437   57.1805   44.5983 dc         1 CLA      0.027600
    100 H162       83.8058   57.7836   42.2295 dc         1 CLA      0.002900
    101 H161       82.1849   58.5344   42.1621 dc         1 CLA      0.002900
    102 H152       81.1523   56.7247   42.8433 dc         1 CLA      0.029100
    103 H151       82.4492   55.6418   42.8642 dc         1 CLA      0.029100
    104 H143       80.9622   56.8881   39.1187 dc         1 CLA      0.063600
    105 H142       80.4958   57.7132   40.5479 dc         1 CLA      0.063600
    106 H141       82.1241   57.9831   39.7829 dc         1 CLA      0.063600
    107 H122       83.7608   54.8626   41.1242 dc         1 CLA      0.032500
    108 H121       84.1025   56.4779   40.4411 dc         1 CLA      0.032500
    109 H112       83.0775   55.8603   38.2254 dc         1 CLA      0.006600
    110 H111       82.9391   54.3133   38.9284 dc         1 CLA      0.006600
    111 H102       85.4075   53.8552   39.1470 dc         1 CLA      0.024100
    112 H101       85.5630   55.5854   38.8700 dc         1 CLA      0.024100
    113 HHD        71.5067   56.8848   39.3055 da         1 CLA      0.174300
    114 HHC        75.8694   60.2252   42.2711 da         1 CLA      0.136800
    115 HHB        79.8968   59.5418   37.2455 da         1 CLA      0.138300
    116 HBD        75.1113   56.0372   33.1393 dc         1 CLA      0.107700
    117 HAB        78.0540   61.5445   42.9086 da         1 CLA      0.155200
    118 H93        87.3151   53.8761   37.3198 dc         1 CLA      0.069500
    119 H92        87.0100   54.5379   35.7413 dc         1 CLA      0.069500
    120 H91        87.1869   55.6434   36.9597 dc         1 CLA      0.069500
    121 H8         84.7812   55.3497   36.5102 dc         1 CLA      0.029300
    122 H72        83.6045   53.4573   36.6547 dc         1 CLA      0.044400
    123 H71        84.8412   52.4099   37.1942 dc         1 CLA      0.044400
    124 H62        85.6704   52.7202   34.6159 dc         1 CLA      0.015600
    125 H61        84.7797   54.0893   34.4629 dc         1 CLA      0.015600
    126 H52        83.7494   51.2390   34.5005 dc         1 CLA      0.033200
    127 H51        83.6130   52.4506   33.3059 dc         1 CLA      0.033200
    128 H43        81.0286   50.7962   35.1936 dc         1 CLA      0.037000
    129 H42        82.1206   51.3502   36.3426 dc         1 CLA      0.037000
    130 H41        80.6449   52.3827   36.1925 dc         1 CLA      0.037000
    131 H3A        79.5556   58.8206   34.9125 dc         1 CLA      0.041100
    132 H2A        78.3757   56.0241   34.6521 dc         1 CLA      0.083100
    133 H2         81.6207   54.5959   34.8810 da         1 CLA      0.180900
    134 H18        83.1396   60.1556   44.0100 dc         1 CLA     -0.003900
    135 H13        81.3432   55.2629   40.8473 dc         1 CLA      0.019700
    136 H12        80.0061   53.1280   32.8722 dc         1 CLA      0.120400
    137 H11        81.4793   53.7250   32.0554 dc         1 CLA      0.120400
    138 C1         67.9116   60.4365   48.0962 Z1         2 LUT      0.509236
    139 C2         66.7421   60.1757   49.1517 Z2         2 LUT     -0.434695
    140 C3         65.8989   61.3746   49.5291 Z3         2 LUT      0.437453
    141 O3         66.2352   61.8338   50.8663 S1         2 LUT     -0.547129
    142 C4         66.0711   62.6360   48.6799 Z4         2 LUT     -0.468603
    143 C5         66.6956   62.4979   47.3274 Z5         2 LUT      0.279246
    144 C6         67.4963   61.4244   47.0594 Z6         2 LUT     -0.305473
    145 C7         67.8311   60.9764   45.7392 Z7         2 LUT      0.069402
    146 C8         69.0760   61.2473   45.1726 Z8         2 LUT     -0.191631
    147 C9         69.4721   61.0034   43.8433 Z9         2 LUT      0.196698
    148 C10        70.5502   61.7819   43.4092 Y1         2 LUT     -0.208611
    149 C11        71.3780   61.7753   42.2289 Y2         2 LUT      0.030784
    150 C12        72.4595   62.6275   42.0178 Y3         2 LUT     -0.220316
    151 C13        73.5221   62.5264   41.0200 Y4         2 LUT      0.215937
    152 C14        74.7164   63.2725   41.1385 Y5         2 LUT     -0.185793
    153 C15        75.8064   63.2811   40.2306 Y6         2 LUT     -0.057835
    154 C16        68.5419   59.0543   47.8425 Y7         2 LUT     -0.405615
    155 C17        68.9580   61.1559   48.9450 Y7         2 LUT     -0.405615
    156 C18        66.0830   63.4568   46.3530 Y9         2 LUT     -0.369639
    157 C19        68.8294   59.8225   43.2115 W1         2 LUT     -0.333362
    158 C20        73.0725   62.0154   39.6747 W2         2 LUT     -0.323439
    159 C21        87.1051   64.5748   34.0503 Z1         2 LUT      0.406104
    160 C22        87.7748   63.8976   32.8277 Z2         2 LUT     -0.404965
    161 C23        87.8846   64.7013   31.5502 Z3         2 LUT      0.391255
    162 O23        88.4111   63.8530   30.4932 S1         2 LUT     -0.528210
    163 C24        86.6764   65.5476   31.3056 W6         2 LUT     -0.258361
    164 C25        85.6370   65.6945   32.0952 Z5         2 LUT      0.133546
    165 C26        85.6815   65.0989   33.4923 W8         2 LUT     -0.147008
    166 C27        84.7500   65.9080   34.4633 Z7         2 LUT      0.023843
    167 C28        83.8570   65.2625   35.2676 Z8         2 LUT     -0.216987
    168 C29        83.1545   65.8138   36.4448 Z9         2 LUT      0.206524
    169 C30        82.0667   65.1862   36.9696 Y1         2 LUT     -0.215556
    170 C31        81.3308   65.4148   38.1822 Y2         2 LUT      0.025142
    171 C32        80.0927   64.8121   38.2713 Y3         2 LUT     -0.212209
    172 C33        79.2272   64.8515   39.3962 Y4         2 LUT      0.240937
    173 C34        78.1033   64.0560   39.4173 Y5         2 LUT     -0.218862
    174 C35        76.9668   64.0513   40.3173 Y6         2 LUT     -0.023547
    175 C36        88.0920   65.7018   34.4333 Y7         2 LUT     -0.393485
    176 C37        86.9051   63.5171   35.1619 Y7         2 LUT     -0.393485
    177 C38        84.4025   66.3655   31.6884 Y9         2 LUT     -0.387526
    178 C39        83.7642   66.9771   37.0828 W1         2 LUT     -0.322618
    179 C40        79.4891   65.8525   40.5318 W2         2 LUT     -0.358472
    180 H403       80.4928   66.0986   40.8083 R7         2 LUT      0.097720
    181 H402       79.1342   66.8118   40.1903 R7         2 LUT      0.097720
    182 H401       79.0029   65.6393   41.4638 R7         2 LUT      0.097720
    183 H393       83.2269   67.8307   36.7561 R4         2 LUT      0.082505
    184 H392       83.8295   66.9777   38.1632 R4         2 LUT      0.082505
    185 H391       84.7766   67.0849   36.6559 R4         2 LUT      0.082505
    186 H383       84.3824   66.7975   30.6976 R1         2 LUT      0.104030
    187 H382       83.5353   65.7837   31.7180 R1         2 LUT      0.104030
    188 H381       84.2236   67.2116   32.3405 R1         2 LUT      0.104030
    189 H373       86.3560   62.7238   34.6264 T4         2 LUT      0.089537
    190 H372       87.9052   63.1503   35.5087 T4         2 LUT      0.089537
    191 H371       86.3067   64.0253   35.9307 T4         2 LUT      0.089537
    192 H363       89.0892   65.3725   34.5584 T4         2 LUT      0.089537
    193 H362       87.9652   66.4900   33.7106 T4         2 LUT      0.089537
    194 H361       87.8665   66.2218   35.3331 T4         2 LUT      0.089537
    195 H222       88.7696   63.6217   33.0797 U2         2 LUT      0.127376
    196 H221       87.2845   62.9571   32.5113 U2         2 LUT      0.127376
    197 H203       72.8894   60.9771   39.6162 R7         2 LUT      0.087068
    198 H202       72.1991   62.4862   39.3025 R7         2 LUT      0.087068
    199 H201       73.7467   62.3005   38.8386 R7         2 LUT      0.087068
    200 H193       67.8170   60.0396   42.9721 R4         2 LUT      0.089716
    201 H192       69.3627   59.5494   42.2811 R4         2 LUT      0.089716
    202 H191       68.8155   59.0183   43.9182 R4         2 LUT      0.089716
    203 H183       66.5715   64.4390   46.4200 R1         2 LUT      0.094572
    204 H182       66.0997   63.1609   45.3105 R1         2 LUT      0.094572
    205 H181       65.0128   63.5450   46.4962 R1         2 LUT      0.094572
    206 H173       69.7749   61.5861   48.3830 T4         2 LUT      0.093752
    207 H172       68.5847   62.0882   49.4496 T4         2 LUT      0.093752
    208 H171       69.2671   60.4882   49.7421 T4         2 LUT      0.093752
    209 H163       69.0000   58.5445   48.7396 T4         2 LUT      0.093752
    210 H162       67.8004   58.2875   47.5598 T4         2 LUT      0.093752
    211 H161       69.2228   58.9303   46.9915 T4         2 LUT      0.093752
    212 HO3        65.7436   61.2774   51.5675 Q1         2 LUT      0.300121
    213 H8         69.6902   61.8465   45.8618 U7         2 LUT      0.080784
    214 H7         66.9186   60.6546   45.2568 U6         2 LUT      0.042190
    215 H42        65.0814   63.1802   48.5767 U5         2 LUT      0.145166
    216 H41        66.6789   63.3871   49.1357 U5         2 LUT      0.145166
    217 H35        77.1267   64.6889   41.1789 T3         2 LUT      0.077919
    218 H34        77.9256   63.5045   38.5430 T2         2 LUT      0.073626
    219 H32        79.6873   64.1546   37.5808 T1         2 LUT      0.092510
    220 H31        81.6808   66.0534   39.0160 U9         2 LUT      0.070048
    221 H30        81.7771   64.2608   36.4809 U8         2 LUT      0.085442
    222 H3         64.8789   61.0840   49.4082 U3         2 LUT     -0.031596
    223 H28        83.4234   64.3250   34.7716 U7         2 LUT      0.084728
    224 H27        85.1693   66.8369   34.6553 U6         2 LUT      0.087291
    225 H26        85.0477   64.3922   33.1269 Q6         2 LUT      0.075325
    226 H24        86.6963   65.9761   30.3506 Q5         2 LUT      0.094482
    227 H23        88.6468   65.4676   31.7199 U3         2 LUT     -0.024869
    228 H22        65.9447   59.6129   48.6114 U2         2 LUT      0.127376
    229 H21        67.1088   59.6442   50.0893 U2         2 LUT      0.127376
    230 H15        75.8763   62.5883   39.4105 T3         2 LUT      0.093200
    231 H14        74.8121   63.9949   41.9846 T2         2 LUT      0.068865
    232 H12        72.6344   63.2780   42.8537 T1         2 LUT      0.095507
    233 H11        71.1262   60.9548   41.5667 U9         2 LUT      0.068930
    234 H10        70.8677   62.5182   44.1304 U8         2 LUT      0.083911
    235 H1         87.7253   63.6069   29.8275 Q1         2 LUT      0.297311
@<TRIPOS>BOND
    1     6     1 1
    2     7     2 1
    3     8     3 1
    4     9     4 1
    5    11     4 1
    6    12     6 1
    7    13     9 1
    8    16     9 1
    9    25     5 1
   10    25    16 1
   11    26    10 1
   12    26    17 1
   13    27    18 1
   14    28    14 1
   15    28    19 1
   16    29    12 1
   17    30    13 1
   18    31    24 1
   19    32     1 1
   20    32    25 1
   21    33    21 1
   22    33    26 1
   23    34    22 1
   24    34    27 1
   25    35    23 1
   26    35    28 1
   27    36    12 1
   28    36    24 1
   29    37    13 1
   30    37    15 1
   31    38    31 1
   32    39    20 1
   33    39    32 1
   34    40     2 1
   35    40    33 1
   36    41     3 1
   37    41    34 1
   38    42     4 1
   39    42    35 1
   40    43    38 1
   41    44     5 1
   42    44    17 1
   43    44    39 1
   44    45    10 1
   45    45    18 1
   46    45    40 1
   47    46    19 1
   48    46    41 1
   49    47    14 1
   50    47    16 1
   51    47    42 1
   52    48    38 1
   53    49    48 1
   54    50    49 1
   55    51    50 1
   56    52    51 1
   57    53    51 1
   58    54    53 1
   59    55    54 1
   60    56    55 1
   61    57    56 1
   62    58    56 1
   63    59    58 1
   64    60    59 1
   65    61    60 1
   66    62    61 1
   67    63    61 1
   68    64    27 1
   69    64    46 1
   70    65     5 1
   71    65    10 1
   72    65    64 1
   73    65    14 1
   74    66    23 1
   75    67    23 1
   76    68    23 1
   77    69    22 1
   78    70    22 1
   79    71    22 1
   80    72    21 1
   81    73    21 1
   82    74    21 1
   83    75    20 1
   84    76    20 1
   85    77    20 1
   86    78    15 1
   87    79    15 1
   88    80    15 1
   89    81     8 1
   90    82     8 1
   91    83     8 1
   92    84     7 1
   93    85     7 1
   94    86     6 1
   95    87     6 1
   96    88     3 1
   97    89     3 1
   98    90     1 1
   99    91     1 1
  100    92    63 1
  101    93    63 1
  102    94    63 1
  103    95    62 1
  104    96    62 1
  105    97    62 1
  106    98    60 1
  107    99    60 1
  108   100    59 1
  109   101    59 1
  110   102    58 1
  111   103    58 1
  112   104    57 1
  113   105    57 1
  114   106    57 1
  115   107    55 1
  116   108    55 1
  117   109    54 1
  118   110    54 1
  119   111    53 1
  120   112    53 1
  121   113    19 1
  122   114    18 1
  123   115    17 1
  124   116     9 1
  125   117     2 1
  126   118    52 1
  127   119    52 1
  128   120    52 1
  129   121    51 1
  130   122    50 1
  131   123    50 1
  132   124    49 1
  133   125    49 1
  134   126    48 1
  135   127    48 1
  136   128    43 1
  137   129    43 1
  138   130    43 1
  139   131    39 1
  140   132    32 1
  141   133    31 1
  142   134    61 1
  143   135    56 1
  144   136    24 1
  145   137    24 1
  146   139   138 1
  147   140   139 1
  148   141   140 1
  149   142   140 1
  150   143   142 1
  151   144   138 1
  152   144   143 1
  153   145   144 1
  154   146   145 1
  155   147   146 1
  156   148   147 1
  157   149   148 1
  158   150   149 1
  159   151   150 1
  160   152   151 1
  161   153   152 1
  162   154   138 1
  163   155   138 1
  164   156   143 1
  165   157   147 1
  166   158   151 1
  167   160   159 1
  168   161   160 1
  169   162   161 1
  170   163   161 1
  171   164   163 1
  172   165   159 1
  173   165   164 1
  174   166   165 1
  175   167   166 1
  176   168   167 1
  177   169   168 1
  178   170   169 1
  179   171   170 1
  180   172   171 1
  181   173   172 1
  182   174   153 1
  183   174   173 1
  184   175   159 1
  185   176   159 1
  186   177   164 1
  187   178   168 1
  188   179   172 1
  189   180   179 1
  190   181   179 1
  191   182   179 1
  192   183   178 1
  193   184   178 1
  194   185   178 1
  195   186   177 1
  196   187   177 1
  197   188   177 1
  198   189   176 1
  199   190   176 1
  200   191   176 1
  201   192   175 1
  202   193   175 1
  203   194   175 1
  204   195   160 1
  205   196   160 1
  206   197   158 1
  207   198   158 1
  208   199   158 1
  209   200   157 1
  210   201   157 1
  211   202   157 1
  212   203   156 1
  213   204   156 1
  214   205   156 1
  215   206   155 1
  216   207   155 1
  217   208   155 1
  218   209   154 1
  219   210   154 1
  220   211   154 1
  221   212   141 1
  222   213   146 1
  223   214   145 1
  224   215   142 1
  225   216   142 1
  226   217   174 1
  227   218   173 1
  228   219   171 1
  229   220   170 1
  230   221   169 1
  231   222   140 1
  232   223   167 1
  233   224   166 1
  234   225   165 1
  235   226   163 1
  236   227   161 1
  237   228   139 1
  238   229   139 1
  239   230   153 1
  240   231   152 1
  241   232   150 1
  242   233   149 1
  243   234   148 1
  244   235   162 1
  245   65    153 1
  246   65    174 1
@<TRIPOS>SUBSTRUCTURE
      1 CLA               1 ****               0 ****  **** 
      2 LUT             138 ****               0 ****  **** 
