@<TRIPOS>MOLECULE
Cpptraj generated mol2 file.
  235   246     2     0     0
SMALL
USER_CHARGES


@<TRIPOS>ATOM
      1 CAA        80.0228   58.7158   34.4607 a2         1 CLA     -0.055900
      2 CAB        79.0927   62.2063   43.6549 c8         1 CLA     -0.148500
      3 CAC        72.7096   57.7354   42.6462 a2         1 CLA     -0.012600
      4 CAD        75.6211   56.0416   35.1908 ck         1 CLA      0.398800
      5 NA         78.6708   58.8807   37.7590 ns         1 CLA     -0.225500
      6 CBA        81.3904   58.6117   33.7341 a2         1 CLA     -0.135000
      7 CBB        80.0291   63.1046   44.0904 c0         1 CLA     -0.395200
      8 CBC        73.1897   56.3700   42.9374 a3         1 CLA     -0.037700
      9 CBD        77.1070   56.7085   34.9208 a1         1 CLA     -0.053900
     10 NB         78.3193   60.2324   40.4437 nm         1 CLA     -0.295700
     11 OBD        74.9610   55.3420   34.4711 o2         1 CLA     -0.494600
     12 CGA        81.8955   57.2315   33.4927 c4         1 CLA      0.827000
     13 CGD        78.0480   55.5436   34.7036 c4         1 CLA      0.655300
     14 ND         75.8810   57.9724   38.1724 nm         1 CLA     -0.291600
     15 CED        79.2035   53.5883   35.8419 a3         1 CLA      0.005400
     16 CHA        77.4501   57.5728   36.1331 cs         1 CLA     -0.123800
     17 CHB        80.4160   60.0400   39.1400 aa         1 CLA     -0.291900
     18 CHC        76.7223   60.6557   42.3221 aa         1 CLA     -0.090400
     19 CHD        73.9536   57.6606   39.6894 aa         1 CLA     -0.052000
     20 CMA        82.1136   58.0050   37.6660 a3         1 CLA     -0.230700
     21 CMB        81.6079   61.8477   41.3231 a3         1 CLA     -0.180800
     22 CMC        74.4017   59.9783   44.2581 a3         1 CLA     -0.134000
     23 CMD        73.0308   55.6136   37.3255 a3         1 CLA     -0.141100
     24 C1         82.8346   55.1899   34.2940 a2         1 CLA      0.023000
     25 C1A        78.6155   58.2003   36.5888 ac         1 CLA     -0.015100
     26 C1B        79.6658   60.4250   40.2628 cr         1 CLA      0.054700
     27 C1C        75.6500   59.9011   41.9121 cn         1 CLA     -0.005600
     28 C1D        74.6787   57.3764   38.5010 ap         1 CLA     -0.047300
     29 O1A        81.5931   56.6311   32.4480 o2         1 CLA     -0.610800
     30 O1D        78.8508   55.3538   33.7532 o2         1 CLA     -0.558200
     31 C2         83.3837   54.5572   35.5235 c8         1 CLA     -0.325100
     32 C2A        80.0387   58.1746   35.9322 a1         1 CLA      0.098600
     33 C2B        80.1536   61.3079   41.3075 cb         1 CLA      0.088500
     34 C2C        74.5032   59.5617   42.8079 cb         1 CLA      0.053700
     35 C2D        74.3027   56.4817   37.4054 cb         1 CLA      0.058900
     36 O2A        82.5318   56.6222   34.5901 o1         1 CLA     -0.437200
     37 O2D        78.2018   54.7498   35.8455 o1         1 CLA     -0.357600
     38 C3         84.5355   53.9002   35.7210 c5         1 CLA      0.031200
     39 C3A        80.9906   58.8653   36.9691 a1         1 CLA      0.166800
     40 C3B        79.1531   61.4738   42.3168 cb         1 CLA      0.035000
     41 C3C        73.7758   58.5987   42.0925 cb         1 CLA     -0.089900
     42 C3D        75.3185   56.5206   36.4969 cb         1 CLA     -0.035900
     43 C4         84.7069   52.3959   35.4172 a3         1 CLA     -0.053300
     44 C4A        79.9198   59.2695   38.0123 ac         1 CLA      0.001800
     45 C4B        78.0036   60.7943   41.6675 cn         1 CLA     -0.020900
     46 C4C        74.3856   58.4319   40.7577 cr         1 CLA     -0.044400
     47 C4D        76.2755   57.4684   36.9089 c6         1 CLA     -0.046000
     48 C5         85.7089   54.6160   36.3270 a2         1 CLA     -0.070400
     49 C6         85.4638   55.3082   37.6940 a2         1 CLA      0.043900
     50 C7         86.7834   55.9451   38.2909 a2         1 CLA     -0.150000
     51 C8         86.6818   56.7673   39.6227 a1         1 CLA      0.064200
     52 C9         85.9741   58.1119   39.4186 a3         1 CLA     -0.259300
     53 C10        88.1062   56.9299   40.1599 a2         1 CLA     -0.071900
     54 C11        88.3405   57.1033   41.6756 a2         1 CLA      0.014500
     55 C12        88.1573   55.8537   42.5489 a2         1 CLA     -0.112100
     56 C13        88.3544   56.1115   44.0318 a1         1 CLA      0.089200
     57 C14        88.5378   54.7922   44.8516 a3         1 CLA     -0.239100
     58 C15        87.1428   56.8991   44.6215 a2         1 CLA     -0.102200
     59 C16        87.1120   57.2264   46.1295 a2         1 CLA      0.023900
     60 C17        86.1046   58.2677   46.5278 a2         1 CLA     -0.105700
     61 C18        85.9867   58.3823   48.0614 a1         1 CLA      0.206800
     62 C19        85.1968   59.5960   48.3332 a3         1 CLA     -0.280100
     63 C20        85.2645   57.1220   48.6683 a3         1 CLA     -0.280100
     64 NC         75.5953   59.1640   40.7805 nx         1 CLA     -0.309200
     65 MG         77.0364   59.2283   39.1775 mg         1 CLA      0.895000
     66 HMD3       72.2269   56.1846   36.8055 dc         1 CLA      0.064300
     67 HMD2       73.2119   54.7108   36.7697 dc         1 CLA      0.064300
     68 HMD1       72.7519   55.4503   38.3880 dc         1 CLA      0.064300
     69 HMC3       73.3787   59.8120   44.6948 dc         1 CLA      0.052100
     70 HMC2       75.0634   59.4541   44.8386 dc         1 CLA      0.052100
     71 HMC1       74.5283   61.0863   44.2422 dc         1 CLA      0.052100
     72 HMB3       82.3740   61.1688   40.8216 dc         1 CLA      0.063600
     73 HMB2       81.5876   62.8391   40.9066 dc         1 CLA      0.063600
     74 HMB1       81.9856   61.8680   42.3508 dc         1 CLA      0.063600
     75 HMA3       82.3750   57.1388   37.0653 dc         1 CLA      0.058300
     76 HMA2       82.9079   58.6914   37.8888 dc         1 CLA      0.058300
     77 HMA1       81.6850   57.6389   38.6070 dc         1 CLA      0.058300
     78 HED3       79.2477   52.9672   34.9539 dc         1 CLA      0.079300
     79 HED2       80.2435   53.9723   36.1325 dc         1 CLA      0.079300
     80 HED1       78.9045   52.9902   36.6614 dc         1 CLA      0.079300
     81 HBC3       72.2799   55.9134   43.1705 dc         1 CLA      0.016300
     82 HBC2       73.6422   55.9118   42.0200 dc         1 CLA      0.016300
     83 HBC1       73.9321   56.3044   43.7941 dc         1 CLA      0.016300
     84 HBB2       79.8992   63.5395   45.0858 da         1 CLA      0.183000
     85 HBB1       80.8598   63.3765   43.4160 da         1 CLA      0.183000
     86 HBA2       81.2983   59.2560   32.8244 dc         1 CLA      0.029400
     87 HBA1       82.1996   59.0671   34.3507 dc         1 CLA      0.029400
     88 HAC2       72.3347   58.2020   43.5871 dc         1 CLA      0.029300
     89 HAC1       71.9652   57.7777   41.9097 dc         1 CLA      0.029300
     90 HAA2       79.2803   58.1235   33.8368 dc         1 CLA      0.028700
     91 HAA1       79.5672   59.7086   34.5984 dc         1 CLA      0.028700
     92 H203       85.1194   57.2181   49.7226 dc         1 CLA      0.065600
     93 H202       84.3204   57.2047   48.2325 dc         1 CLA      0.065600
     94 H201       85.7118   56.1014   48.4051 dc         1 CLA      0.065600
     95 H193       85.6646   60.2960   47.6416 dc         1 CLA      0.065600
     96 H192       84.1145   59.4584   48.2213 dc         1 CLA      0.065600
     97 H191       85.3739   60.0589   49.3456 dc         1 CLA      0.065600
     98 H172       86.4048   59.2492   46.1289 dc         1 CLA      0.027600
     99 H171       85.1290   57.9399   46.0617 dc         1 CLA      0.027600
    100 H162       86.7639   56.2521   46.5336 dc         1 CLA      0.002900
    101 H161       88.1068   57.4347   46.4895 dc         1 CLA      0.002900
    102 H152       87.0284   57.8919   44.1762 dc         1 CLA      0.029100
    103 H151       86.1853   56.4058   44.4033 dc         1 CLA      0.029100
    104 H143       89.3902   54.2428   44.4409 dc         1 CLA      0.063600
    105 H142       88.8152   55.1707   45.8616 dc         1 CLA      0.063600
    106 H141       87.5912   54.2333   44.9359 dc         1 CLA      0.063600
    107 H122       87.2360   55.3337   42.2926 dc         1 CLA      0.032500
    108 H121       88.9373   55.2363   42.2160 dc         1 CLA      0.032500
    109 H112       89.2822   57.5445   41.8893 dc         1 CLA      0.006600
    110 H111       87.6935   57.9051   41.9703 dc         1 CLA      0.006600
    111 H102       88.6984   55.9612   40.0472 dc         1 CLA      0.024100
    112 H101       88.5972   57.7205   39.6264 dc         1 CLA      0.024100
    113 HHD        73.0682   57.0472   39.8625 da         1 CLA      0.174300
    114 HHC        76.5907   61.1204   43.2259 da         1 CLA      0.136800
    115 HHB        81.5014   60.3033   39.1445 da         1 CLA      0.138300
    116 HBD        76.9709   57.4024   34.0619 dc         1 CLA      0.107700
    117 HAB        78.2722   61.9823   44.2947 da         1 CLA      0.155200
    118 H93        84.9735   58.0012   38.9944 dc         1 CLA      0.069500
    119 H92        85.8045   58.6570   40.3535 dc         1 CLA      0.069500
    120 H91        86.5042   58.7032   38.6430 dc         1 CLA      0.069500
    121 H8         86.1233   56.2530   40.3707 dc         1 CLA      0.029300
    122 H72        87.3534   55.1076   38.5668 dc         1 CLA      0.044400
    123 H71        87.2903   56.5205   37.5637 dc         1 CLA      0.044400
    124 H62        84.7958   56.1284   37.4792 dc         1 CLA      0.015600
    125 H61        84.9785   54.5960   38.4174 dc         1 CLA      0.015600
    126 H52        86.5947   53.9578   36.5485 dc         1 CLA      0.033200
    127 H51        85.8728   55.4690   35.5799 dc         1 CLA      0.033200
    128 H43        85.3212   52.2114   34.5983 dc         1 CLA      0.037000
    129 H42        85.1824   51.9363   36.3057 dc         1 CLA      0.037000
    130 H41        83.7453   51.9352   35.1973 dc         1 CLA      0.037000
    131 H3A        81.3472   59.7623   36.5276 dc         1 CLA      0.041100
    132 H2A        80.3621   57.1085   35.9880 dc         1 CLA      0.083100
    133 H2         82.7480   54.7360   36.3648 da         1 CLA      0.180900
    134 H18        86.9600   58.3491   48.5363 dc         1 CLA     -0.003900
    135 H13        89.2620   56.6337   44.1183 dc         1 CLA      0.019700
    136 H12        81.9057   54.6210   34.0192 dc         1 CLA      0.120400
    137 H11        83.4356   55.0595   33.4208 dc         1 CLA      0.120400
    138 C1         68.8483   61.8052   50.2674 Z1         2 LUT      0.509236
    139 C2         68.6963   62.7945   51.4125 Z2         2 LUT     -0.434695
    140 C3         67.3098   63.5125   51.5202 Z3         2 LUT      0.437453
    141 O3         67.7147   64.6665   52.2534 S1         2 LUT     -0.547129
    142 C4         66.7584   63.8503   50.1238 Z4         2 LUT     -0.468603
    143 C5         67.5756   63.5206   48.9901 Z5         2 LUT      0.279246
    144 C6         68.5421   62.6445   48.9896 Z6         2 LUT     -0.305473
    145 C7         69.3989   62.2819   47.8317 Z7         2 LUT      0.069402
    146 C8         70.2348   62.9069   46.9630 Z8         2 LUT     -0.191631
    147 C9         71.0386   62.3805   45.7258 Z9         2 LUT      0.196698
    148 C10        72.0189   63.1744   45.1236 Y1         2 LUT     -0.208611
    149 C11        72.7047   63.0096   43.8420 Y2         2 LUT      0.030784
    150 C12        73.9314   63.7006   43.6569 Y3         2 LUT     -0.220316
    151 C13        74.7221   63.6271   42.4955 Y4         2 LUT      0.215937
    152 C14        75.9481   64.3329   42.5672 Y5         2 LUT     -0.185793
    153 C15        77.0921   64.3644   41.7107 Y6         2 LUT     -0.057835
    154 C16        67.9328   60.5428   50.3214 Y7         2 LUT     -0.405615
    155 C17        70.3513   61.3558   50.2279 Y7         2 LUT     -0.405615
    156 C18        67.2664   64.4694   47.8169 Y9         2 LUT     -0.369639
    157 C19        70.4989   61.1641   45.0994 W1         2 LUT     -0.333362
    158 C20        74.1362   62.8139   41.2662 W2         2 LUT     -0.323439
    159 C21        88.6969   65.9519   35.7295 Z1         2 LUT      0.406104
    160 C22        89.4561   65.2459   34.5669 Z2         2 LUT     -0.404965
    161 C23        89.2754   66.1066   33.2764 Z3         2 LUT      0.391255
    162 O23        89.9826   65.4727   32.1912 S1         2 LUT     -0.528210
    163 C24        87.9035   66.6613   33.0721 W6         2 LUT     -0.258361
    164 C25        86.9902   66.7858   33.9796 Z5         2 LUT      0.133546
    165 C26        87.2110   66.2486   35.4407 W8         2 LUT     -0.147008
    166 C27        86.5665   67.0061   36.6181 Z7         2 LUT      0.023843
    167 C28        85.3980   66.5874   37.1631 Z8         2 LUT     -0.216987
    168 C29        84.6614   66.9900   38.3467 Z9         2 LUT      0.206524
    169 C30        83.4982   66.3096   38.6603 Y1         2 LUT     -0.215556
    170 C31        82.6031   66.5011   39.7940 Y2         2 LUT      0.025142
    171 C32        81.4810   65.8062   40.0163 Y3         2 LUT     -0.212209
    172 C33        80.4740   65.9207   41.1253 Y4         2 LUT      0.240937
    173 C34        79.3500   65.1859   40.9955 Y5         2 LUT     -0.218862
    174 C35        78.2405   65.1099   41.8981 Y6         2 LUT     -0.023547
    175 C36        89.6720   67.1789   35.9266 Y7         2 LUT     -0.393485
    176 C37        88.8897   64.9661   36.7946 Y7         2 LUT     -0.393485
    177 C38        85.6722   67.4521   33.6050 Y9         2 LUT     -0.387526
    178 C39        85.1976   68.0602   39.2363 W1         2 LUT     -0.322618
    179 C40        80.9409   66.8611   42.2063 W2         2 LUT     -0.358472
    180 H403       80.8364   67.8726   41.9076 R7         2 LUT      0.097720
    181 H402       80.2830   66.8617   43.0751 R7         2 LUT      0.097720
    182 H401       81.9640   66.7888   42.4934 R7         2 LUT      0.097720
    183 H393       84.9565   67.8113   40.3324 R4         2 LUT      0.082505
    184 H392       86.2325   68.1745   39.1543 R4         2 LUT      0.082505
    185 H391       84.6947   69.0547   39.1373 R4         2 LUT      0.082505
    186 H383       85.3769   68.2128   34.3752 R1         2 LUT      0.104030
    187 H382       85.5621   67.9284   32.5890 R1         2 LUT      0.104030
    188 H381       84.7806   66.7312   33.6124 R1         2 LUT      0.104030
    189 H373       89.9176   64.8639   37.1772 T4         2 LUT      0.089537
    190 H372       88.2564   65.1797   37.6597 T4         2 LUT      0.089537
    191 H371       88.7678   63.9746   36.3937 T4         2 LUT      0.089537
    192 H363       90.7910   67.0641   35.9138 T4         2 LUT      0.089537
    193 H362       89.5725   68.0039   35.2186 T4         2 LUT      0.089537
    194 H361       89.4024   67.4706   36.9029 T4         2 LUT      0.089537
    195 H222       90.5322   65.2392   34.7222 U2         2 LUT      0.127376
    196 H221       89.0350   64.2929   34.3300 U2         2 LUT      0.127376
    197 H203       73.8891   61.7159   41.5346 R7         2 LUT      0.087068
    198 H202       73.3691   63.3225   40.7693 R7         2 LUT      0.087068
    199 H201       74.9282   62.6119   40.5753 R7         2 LUT      0.087068
    200 H193       70.8065   61.1224   44.0521 R4         2 LUT      0.089716
    201 H192       70.8392   60.2263   45.5156 R4         2 LUT      0.089716
    202 H191       69.4143   61.1654   45.1552 R4         2 LUT      0.089716
    203 H183       68.1415   65.1180   47.6732 R1         2 LUT      0.094572
    204 H182       67.2303   63.8541   46.8987 R1         2 LUT      0.094572
    205 H181       66.4055   65.1483   47.8994 R1         2 LUT      0.094572
    206 H173       70.9727   62.1934   49.9908 T4         2 LUT      0.093752
    207 H172       70.6787   60.9921   51.2712 T4         2 LUT      0.093752
    208 H171       70.5659   60.4788   49.5666 T4         2 LUT      0.093752
    209 H163       67.9711   59.8580   49.4241 T4         2 LUT      0.093752
    210 H162       68.2578   59.8707   51.1658 T4         2 LUT      0.093752
    211 H161       66.9425   60.9837   50.4291 T4         2 LUT      0.093752
    212 HO3        66.9049   64.8680   52.8091 Q1         2 LUT      0.300121
    213 H8         70.4815   63.9822   47.1892 U7         2 LUT      0.080784
    214 H7         69.3718   61.1985   47.6673 U6         2 LUT      0.042190
    215 H42        65.8032   63.3125   49.9662 U5         2 LUT      0.145166
    216 H41        66.2831   64.7866   50.0553 U5         2 LUT      0.145166
    217 H35        78.2265   65.8198   42.7146 T3         2 LUT      0.077919
    218 H34        79.1974   64.5078   40.1039 T2         2 LUT      0.073626
    219 H32        81.2083   65.0465   39.3523 T1         2 LUT      0.092510
    220 H31        82.7479   67.3801   40.4383 U9         2 LUT      0.070048
    221 H30        83.1535   65.5748   37.9623 U8         2 LUT      0.085442
    222 H3         66.6444   62.8954   52.2120 U3         2 LUT     -0.031596
    223 H28        85.0825   65.6450   36.7139 U7         2 LUT      0.084728
    224 H27        87.2104   67.8621   37.0242 U6         2 LUT      0.087291
    225 H26        86.6701   65.2799   35.4336 Q6         2 LUT      0.075325
    226 H24        87.8322   67.0217   32.0310 Q5         2 LUT      0.094482
    227 H23        89.8114   67.0230   33.4488 U3         2 LUT     -0.024869
    228 H22        69.0752   62.3773   52.3511 U2         2 LUT      0.127376
    229 H21        69.4576   63.6084   51.3306 U2         2 LUT      0.127376
    230 H15        77.1847   63.6164   40.9191 T3         2 LUT      0.093200
    231 H14        76.0861   64.8687   43.4923 T2         2 LUT      0.068865
    232 H12        74.2895   64.2862   44.4733 T1         2 LUT      0.095507
    233 H11        72.3571   62.2516   43.1584 U9         2 LUT      0.068930
    234 H10        72.3309   64.0231   45.7416 U8         2 LUT      0.083911
    235 H1         89.4868   64.9393   31.5023 Q1         2 LUT      0.297311
@<TRIPOS>BOND
    1     6     1 1
    2     7     2 1
    3     8     3 1
    4     9     4 1
    5    11     4 1
    6    12     6 1
    7    13     9 1
    8    16     9 1
    9    25     5 1
   10    25    16 1
   11    26    10 1
   12    26    17 1
   13    27    18 1
   14    28    14 1
   15    28    19 1
   16    29    12 1
   17    30    13 1
   18    31    24 1
   19    32     1 1
   20    32    25 1
   21    33    21 1
   22    33    26 1
   23    34    22 1
   24    34    27 1
   25    35    23 1
   26    35    28 1
   27    36    12 1
   28    36    24 1
   29    37    13 1
   30    37    15 1
   31    38    31 1
   32    39    20 1
   33    39    32 1
   34    40     2 1
   35    40    33 1
   36    41     3 1
   37    41    34 1
   38    42     4 1
   39    42    35 1
   40    43    38 1
   41    44     5 1
   42    44    17 1
   43    44    39 1
   44    45    10 1
   45    45    18 1
   46    45    40 1
   47    46    19 1
   48    46    41 1
   49    47    14 1
   50    47    16 1
   51    47    42 1
   52    48    38 1
   53    49    48 1
   54    50    49 1
   55    51    50 1
   56    52    51 1
   57    53    51 1
   58    54    53 1
   59    55    54 1
   60    56    55 1
   61    57    56 1
   62    58    56 1
   63    59    58 1
   64    60    59 1
   65    61    60 1
   66    62    61 1
   67    63    61 1
   68    64    27 1
   69    64    46 1
   70    65     5 1
   71    65    10 1
   72    65    64 1
   73    65    14 1
   74    66    23 1
   75    67    23 1
   76    68    23 1
   77    69    22 1
   78    70    22 1
   79    71    22 1
   80    72    21 1
   81    73    21 1
   82    74    21 1
   83    75    20 1
   84    76    20 1
   85    77    20 1
   86    78    15 1
   87    79    15 1
   88    80    15 1
   89    81     8 1
   90    82     8 1
   91    83     8 1
   92    84     7 1
   93    85     7 1
   94    86     6 1
   95    87     6 1
   96    88     3 1
   97    89     3 1
   98    90     1 1
   99    91     1 1
  100    92    63 1
  101    93    63 1
  102    94    63 1
  103    95    62 1
  104    96    62 1
  105    97    62 1
  106    98    60 1
  107    99    60 1
  108   100    59 1
  109   101    59 1
  110   102    58 1
  111   103    58 1
  112   104    57 1
  113   105    57 1
  114   106    57 1
  115   107    55 1
  116   108    55 1
  117   109    54 1
  118   110    54 1
  119   111    53 1
  120   112    53 1
  121   113    19 1
  122   114    18 1
  123   115    17 1
  124   116     9 1
  125   117     2 1
  126   118    52 1
  127   119    52 1
  128   120    52 1
  129   121    51 1
  130   122    50 1
  131   123    50 1
  132   124    49 1
  133   125    49 1
  134   126    48 1
  135   127    48 1
  136   128    43 1
  137   129    43 1
  138   130    43 1
  139   131    39 1
  140   132    32 1
  141   133    31 1
  142   134    61 1
  143   135    56 1
  144   136    24 1
  145   137    24 1
  146   139   138 1
  147   140   139 1
  148   141   140 1
  149   142   140 1
  150   143   142 1
  151   144   138 1
  152   144   143 1
  153   145   144 1
  154   146   145 1
  155   147   146 1
  156   148   147 1
  157   149   148 1
  158   150   149 1
  159   151   150 1
  160   152   151 1
  161   153   152 1
  162   154   138 1
  163   155   138 1
  164   156   143 1
  165   157   147 1
  166   158   151 1
  167   160   159 1
  168   161   160 1
  169   162   161 1
  170   163   161 1
  171   164   163 1
  172   165   159 1
  173   165   164 1
  174   166   165 1
  175   167   166 1
  176   168   167 1
  177   169   168 1
  178   170   169 1
  179   171   170 1
  180   172   171 1
  181   173   172 1
  182   174   153 1
  183   174   173 1
  184   175   159 1
  185   176   159 1
  186   177   164 1
  187   178   168 1
  188   179   172 1
  189   180   179 1
  190   181   179 1
  191   182   179 1
  192   183   178 1
  193   184   178 1
  194   185   178 1
  195   186   177 1
  196   187   177 1
  197   188   177 1
  198   189   176 1
  199   190   176 1
  200   191   176 1
  201   192   175 1
  202   193   175 1
  203   194   175 1
  204   195   160 1
  205   196   160 1
  206   197   158 1
  207   198   158 1
  208   199   158 1
  209   200   157 1
  210   201   157 1
  211   202   157 1
  212   203   156 1
  213   204   156 1
  214   205   156 1
  215   206   155 1
  216   207   155 1
  217   208   155 1
  218   209   154 1
  219   210   154 1
  220   211   154 1
  221   212   141 1
  222   213   146 1
  223   214   145 1
  224   215   142 1
  225   216   142 1
  226   217   174 1
  227   218   173 1
  228   219   171 1
  229   220   170 1
  230   221   169 1
  231   222   140 1
  232   223   167 1
  233   224   166 1
  234   225   165 1
  235   226   163 1
  236   227   161 1
  237   228   139 1
  238   229   139 1
  239   230   153 1
  240   231   152 1
  241   232   150 1
  242   233   149 1
  243   234   148 1
  244   235   162 1
  245   65    153 1
  246   65    174 1
@<TRIPOS>SUBSTRUCTURE
      1 CLA               1 ****               0 ****  **** 
      2 LUT             138 ****               0 ****  **** 
