@<TRIPOS>MOLECULE
Cpptraj generated mol2 file.
  235   246     2     0     0
SMALL
USER_CHARGES


@<TRIPOS>ATOM
      1 CAA        79.3934   58.2340   34.3708 a2         1 CLA     -0.055900
      2 CAB        79.3416   61.9408   43.5860 c8         1 CLA     -0.148500
      3 CAC        72.3125   57.9082   42.9500 a2         1 CLA     -0.012600
      4 CAD        75.1337   55.7112   35.5597 ck         1 CLA      0.398800
      5 NA         78.3178   58.7394   37.7985 ns         1 CLA     -0.225500
      6 CBA        80.6630   58.0119   33.5685 a2         1 CLA     -0.135000
      7 CBB        80.0559   63.0622   43.9265 c0         1 CLA     -0.395200
      8 CBC        72.1973   56.3457   43.0047 a3         1 CLA     -0.037700
      9 CBD        76.6267   56.2892   35.2707 a1         1 CLA     -0.053900
     10 NB         78.1713   60.3999   40.4283 nm         1 CLA     -0.295700
     11 OBD        74.5295   54.8522   34.9230 o2         1 CLA     -0.494600
     12 CGA        80.9826   56.5728   33.2049 c4         1 CLA      0.827000
     13 CGD        77.5276   55.0910   35.3069 c4         1 CLA      0.655300
     14 ND         75.4276   57.9685   38.3001 nm         1 CLA     -0.291600
     15 CED        78.1399   53.2944   36.5958 a3         1 CLA      0.005400
     16 CHA        76.9299   57.2980   36.3644 cs         1 CLA     -0.123800
     17 CHB        80.0517   60.1458   38.8823 aa         1 CLA     -0.291900
     18 CHC        76.8471   60.3943   42.5170 aa         1 CLA     -0.090400
     19 CHD        73.6340   57.6992   39.9520 aa         1 CLA     -0.052000
     20 CMA        81.8146   58.1804   37.1204 a3         1 CLA     -0.230700
     21 CMB        81.6957   61.5647   41.2217 a3         1 CLA     -0.180800
     22 CMC        74.5321   59.6423   44.6158 a3         1 CLA     -0.134000
     23 CMD        72.2843   55.9531   37.6182 a3         1 CLA     -0.141100
     24 C1         82.1184   54.5232   34.0670 a2         1 CLA      0.023000
     25 C1A        78.1878   57.9643   36.6827 ac         1 CLA     -0.015100
     26 C1B        79.4457   60.6052   40.0774 cr         1 CLA      0.054700
     27 C1C        75.7052   59.6448   42.2519 cn         1 CLA     -0.005600
     28 C1D        74.1790   57.4546   38.6839 ap         1 CLA     -0.047300
     29 O1A        80.7808   56.0328   32.1370 o2         1 CLA     -0.610800
     30 O1D        78.2331   54.7719   34.3773 o2         1 CLA     -0.558200
     31 C2         83.2498   54.3751   35.0072 c8         1 CLA     -0.325100
     32 C2A        79.5073   57.8919   35.9282 a1         1 CLA      0.098600
     33 C2B        80.2146   61.2247   41.1924 cb         1 CLA      0.088500
     34 C2C        74.5842   59.2647   43.1693 cb         1 CLA      0.053700
     35 C2D        73.6222   56.6424   37.6217 cb         1 CLA      0.058900
     36 O2A        81.6026   55.9145   34.2739 o1         1 CLA     -0.437200
     37 O2D        77.3202   54.4303   36.4833 o1         1 CLA     -0.357600
     38 C3         84.5425   54.6801   34.8492 c5         1 CLA      0.031200
     39 C3A        80.4120   58.7529   36.7422 a1         1 CLA      0.166800
     40 C3B        79.2711   61.3844   42.2040 cb         1 CLA      0.035000
     41 C3C        73.6763   58.4488   42.4565 cb         1 CLA     -0.089900
     42 C3D        74.7072   56.4984   36.7739 cb         1 CLA     -0.035900
     43 C4         85.6352   53.8518   34.2060 a3         1 CLA     -0.053300
     44 C4A        79.5761   59.1949   37.9542 ac         1 CLA      0.001800
     45 C4B        78.0246   60.6941   41.7389 cn         1 CLA     -0.020900
     46 C4C        74.1905   58.4597   41.0823 cr         1 CLA     -0.044400
     47 C4D        75.7714   57.3394   37.1788 c6         1 CLA     -0.046000
     48 C5         84.9039   56.1114   35.1528 a2         1 CLA     -0.070400
     49 C6         86.1496   56.4078   36.0469 a2         1 CLA      0.043900
     50 C7         85.9876   55.9369   37.4571 a2         1 CLA     -0.150000
     51 C8         86.8355   56.5626   38.6041 a1         1 CLA      0.064200
     52 C9         88.3940   56.1960   38.3289 a3         1 CLA     -0.259300
     53 C10        86.3993   56.1649   40.1143 a2         1 CLA     -0.071900
     54 C11        86.5745   57.2737   41.2031 a2         1 CLA      0.014500
     55 C12        86.3034   56.7880   42.6452 a2         1 CLA     -0.112100
     56 C13        86.5024   57.8909   43.7796 a1         1 CLA      0.089200
     57 C14        88.0060   58.4264   43.7533 a3         1 CLA     -0.239100
     58 C15        86.0903   57.3551   45.1816 a2         1 CLA     -0.102200
     59 C16        85.9161   58.4834   46.2337 a2         1 CLA      0.023900
     60 C17        85.6926   58.0218   47.6133 a2         1 CLA     -0.105700
     61 C18        85.4770   59.1307   48.7026 a1         1 CLA      0.206800
     62 C19        84.5865   60.3538   48.1895 a3         1 CLA     -0.280100
     63 C20        85.1035   58.5759   50.0837 a3         1 CLA     -0.280100
     64 NC         75.4364   59.1438   41.0108 nx         1 CLA     -0.309200
     65 MG         76.7379   59.2750   39.3597 mg         1 CLA      0.895000
     66 HMD3       71.8319   55.6698   38.6043 dc         1 CLA      0.064300
     67 HMD2       71.6209   56.7455   37.2426 dc         1 CLA      0.064300
     68 HMD1       72.3605   55.0386   36.9183 dc         1 CLA      0.064300
     69 HMC3       74.2899   60.6803   44.7003 dc         1 CLA      0.052100
     70 HMC2       73.7657   59.0755   45.2244 dc         1 CLA      0.052100
     71 HMC1       75.5716   59.5120   44.8852 dc         1 CLA      0.052100
     72 HMB3       82.2283   60.8275   40.6011 dc         1 CLA      0.063600
     73 HMB2       81.8073   62.4675   40.6181 dc         1 CLA      0.063600
     74 HMB1       82.0295   61.7309   42.2422 dc         1 CLA      0.063600
     75 HMA3       82.2930   57.8878   36.2265 dc         1 CLA      0.058300
     76 HMA2       82.5696   58.8935   37.4868 dc         1 CLA      0.058300
     77 HMA1       81.5997   57.3644   37.7944 dc         1 CLA      0.058300
     78 HED3       79.2035   53.5347   36.4578 dc         1 CLA      0.079300
     79 HED2       78.0156   52.8370   37.6049 dc         1 CLA      0.079300
     80 HED1       77.7526   52.5023   35.9082 dc         1 CLA      0.079300
     81 HBC3       71.2679   56.1566   43.5139 dc         1 CLA      0.016300
     82 HBC2       72.1603   55.9889   41.9619 dc         1 CLA      0.016300
     83 HBC1       72.9636   56.0108   43.6408 dc         1 CLA      0.016300
     84 HBB2       80.1355   63.5031   44.9610 da         1 CLA      0.183000
     85 HBB1       80.5100   63.7083   43.0994 da         1 CLA      0.183000
     86 HBA2       80.6685   58.5086   32.6305 dc         1 CLA      0.029400
     87 HBA1       81.5366   58.3637   34.1138 dc         1 CLA      0.029400
     88 HAC2       72.1557   58.2832   43.9813 dc         1 CLA      0.029300
     89 HAC1       71.5491   58.3825   42.3285 dc         1 CLA      0.029300
     90 HAA2       78.6470   57.5593   33.9501 dc         1 CLA      0.028700
     91 HAA1       79.1332   59.2916   34.3355 dc         1 CLA      0.028700
     92 H203       85.7102   57.7180   50.4170 dc         1 CLA      0.065600
     93 H202       85.2381   59.3111   50.8307 dc         1 CLA      0.065600
     94 H201       84.1100   58.1969   50.0981 dc         1 CLA      0.065600
     95 H193       84.4579   61.1441   48.9525 dc         1 CLA      0.065600
     96 H192       85.0154   60.8580   47.3256 dc         1 CLA      0.065600
     97 H191       83.6434   59.9039   47.8909 dc         1 CLA      0.065600
     98 H172       84.9274   57.3154   47.5520 dc         1 CLA      0.027600
     99 H171       86.6100   57.4985   47.9012 dc         1 CLA      0.027600
    100 H162       86.8537   59.0522   46.3525 dc         1 CLA      0.002900
    101 H161       85.1121   59.1450   45.9242 dc         1 CLA      0.002900
    102 H152       85.1321   56.7938   45.0815 dc         1 CLA      0.029100
    103 H151       86.7937   56.6477   45.4839 dc         1 CLA      0.029100
    104 H143       88.7039   57.6537   43.8587 dc         1 CLA      0.063600
    105 H142       88.1561   59.0015   42.8055 dc         1 CLA      0.063600
    106 H141       88.1794   59.2752   44.4874 dc         1 CLA      0.063600
    107 H122       85.2706   56.5607   42.7124 dc         1 CLA      0.032500
    108 H121       86.9111   55.9137   42.8100 dc         1 CLA      0.032500
    109 H112       87.5943   57.5153   41.1538 dc         1 CLA      0.006600
    110 H111       85.8704   58.0589   40.9296 dc         1 CLA      0.006600
    111 H102       85.3207   55.9451   40.0671 dc         1 CLA      0.024100
    112 H101       86.9451   55.2486   40.4645 dc         1 CLA      0.024100
    113 HHD        72.6390   57.3843   40.1591 da         1 CLA      0.174300
    114 HHC        76.8622   60.7190   43.5495 da         1 CLA      0.136800
    115 HHB        81.0365   60.6067   38.7996 da         1 CLA      0.138300
    116 HBD        76.6744   56.7607   34.2966 dc         1 CLA      0.107700
    117 HAB        78.7538   61.4621   44.3473 da         1 CLA      0.155200
    118 H93        88.5345   55.1306   38.5592 dc         1 CLA      0.069500
    119 H92        88.6811   56.4603   37.3238 dc         1 CLA      0.069500
    120 H91        88.9213   56.7845   39.0558 dc         1 CLA      0.069500
    121 H8         86.6953   57.6301   38.5461 dc         1 CLA      0.029300
    122 H72        84.9598   56.1113   37.7624 dc         1 CLA      0.044400
    123 H71        86.1709   54.8705   37.4253 dc         1 CLA      0.044400
    124 H62        87.0283   55.9837   35.6056 dc         1 CLA      0.015600
    125 H61        86.1629   57.5125   36.1030 dc         1 CLA      0.015600
    126 H52        85.0171   56.6911   34.2212 dc         1 CLA      0.033200
    127 H51        84.0829   56.7844   35.4621 dc         1 CLA      0.033200
    128 H43        85.1288   52.9036   33.9446 dc         1 CLA      0.037000
    129 H42        86.0926   54.3078   33.3503 dc         1 CLA      0.037000
    130 H41        86.3941   53.5984   34.9251 dc         1 CLA      0.037000
    131 H3A        80.7062   59.6199   36.1468 dc         1 CLA      0.041100
    132 H2A        79.8181   56.8426   36.0859 dc         1 CLA      0.083100
    133 H2         82.9784   53.7955   35.9258 da         1 CLA      0.180900
    134 H18        86.4642   59.5804   48.7893 dc         1 CLA     -0.003900
    135 H13        85.8750   58.6726   43.4997 dc         1 CLA      0.019700
    136 H12        81.3362   53.7249   34.3070 dc         1 CLA      0.120400
    137 H11        82.4134   54.3684   33.0880 dc         1 CLA      0.120400
    138 C1         69.0805   61.3907   50.0999 Z1         2 LUT      0.509236
    139 C2         67.8040   61.3883   50.9031 Z2         2 LUT     -0.434695
    140 C3         67.1969   62.6771   51.3985 Z3         2 LUT      0.437453
    141 O3         67.8292   63.1995   52.6170 S1         2 LUT     -0.547129
    142 C4         67.3203   63.6512   50.3149 Z4         2 LUT     -0.468603
    143 C5         68.0922   63.2729   49.0545 Z5         2 LUT      0.279246
    144 C6         68.9922   62.3699   48.9023 Z6         2 LUT     -0.305473
    145 C7         69.2253   61.8042   47.5745 Z7         2 LUT      0.069402
    146 C8         70.2051   62.2636   46.8159 Z8         2 LUT     -0.191631
    147 C9         70.6611   61.8805   45.4821 Z9         2 LUT      0.196698
    148 C10        71.6887   62.5933   44.9763 Y1         2 LUT     -0.208611
    149 C11        72.2322   62.4262   43.7362 Y2         2 LUT      0.030784
    150 C12        73.3416   63.2389   43.4441 Y3         2 LUT     -0.220316
    151 C13        74.2186   63.2202   42.3424 Y4         2 LUT      0.215937
    152 C14        75.4661   63.7806   42.4490 Y5         2 LUT     -0.185793
    153 C15        76.5682   63.8308   41.5210 Y6         2 LUT     -0.057835
    154 C16        69.4350   59.9173   49.6252 Y7         2 LUT     -0.405615
    155 C17        70.1042   61.7704   51.1314 Y7         2 LUT     -0.405615
    156 C18        67.4743   64.1329   47.9712 Y9         2 LUT     -0.369639
    157 C19        70.1326   60.5867   44.7932 W1         2 LUT     -0.333362
    158 C20        73.8339   62.4370   41.1791 W2         2 LUT     -0.323439
    159 C21        88.0951   65.1671   35.2052 Z1         2 LUT      0.406104
    160 C22        88.7231   64.4995   33.9268 Z2         2 LUT     -0.404965
    161 C23        88.6889   65.3928   32.6894 Z3         2 LUT      0.391255
    162 O23        89.2934   64.6367   31.6385 S1         2 LUT     -0.528210
    163 C24        87.2800   65.9190   32.4309 W6         2 LUT     -0.258361
    164 C25        86.3454   66.0655   33.3775 Z5         2 LUT      0.133546
    165 C26        86.6044   65.6709   34.8499 W8         2 LUT     -0.147008
    166 C27        85.8115   66.4338   35.9518 Z7         2 LUT      0.023843
    167 C28        84.6174   65.9834   36.3799 Z8         2 LUT     -0.216987
    168 C29        83.8729   66.2982   37.5375 Z9         2 LUT      0.206524
    169 C30        82.9050   65.4437   38.0610 Y1         2 LUT     -0.215556
    170 C31        82.0728   65.8059   39.2195 Y2         2 LUT      0.025142
    171 C32        80.9205   65.0915   39.5527 Y3         2 LUT     -0.212209
    172 C33        79.9622   65.3566   40.6569 Y4         2 LUT      0.240937
    173 C34        78.7625   64.6233   40.6525 Y5         2 LUT     -0.218862
    174 C35        77.7075   64.5804   41.5554 Y6         2 LUT     -0.023547
    175 C36        88.9578   66.3617   35.8205 Y7         2 LUT     -0.393485
    176 C37        88.2163   64.1610   36.3632 Y7         2 LUT     -0.393485
    177 C38        85.1159   66.8246   32.9975 Y9         2 LUT     -0.387526
    178 C39        84.3295   67.7278   38.1372 W1         2 LUT     -0.322618
    179 C40        80.5203   66.1730   41.7394 W2         2 LUT     -0.358472
    180 H403       79.6917   66.2378   42.4273 R7         2 LUT      0.097720
    181 H402       81.3586   65.7338   42.3414 R7         2 LUT      0.097720
    182 H401       80.7971   67.1314   41.4655 R7         2 LUT      0.097720
    183 H393       83.5961   67.9263   38.8798 R4         2 LUT      0.082505
    184 H392       85.3022   67.7362   38.6741 R4         2 LUT      0.082505
    185 H391       84.4250   68.5796   37.3712 R4         2 LUT      0.082505
    186 H383       84.4536   66.9657   33.8613 R1         2 LUT      0.104030
    187 H382       85.4303   67.8162   32.5922 R1         2 LUT      0.104030
    188 H381       84.5421   66.2148   32.2173 R1         2 LUT      0.104030
    189 H373       87.7589   63.2086   36.1479 T4         2 LUT      0.089537
    190 H372       89.2527   63.8932   36.4961 T4         2 LUT      0.089537
    191 H371       87.7245   64.6689   37.2077 T4         2 LUT      0.089537
    192 H363       89.9868   66.0310   36.0319 T4         2 LUT      0.089537
    193 H362       89.1255   67.2232   35.1267 T4         2 LUT      0.089537
    194 H361       88.6292   66.7407   36.8361 T4         2 LUT      0.089537
    195 H222       89.7147   64.2018   34.0759 U2         2 LUT      0.127376
    196 H221       88.1758   63.6229   33.5779 U2         2 LUT      0.127376
    197 H203       73.4540   63.1779   40.4700 R7         2 LUT      0.087068
    198 H202       74.6537   61.8906   40.7807 R7         2 LUT      0.087068
    199 H201       73.0772   61.6958   41.3294 R7         2 LUT      0.087068
    200 H193       69.1271   60.6401   44.3933 R4         2 LUT      0.089716
    201 H192       70.8324   60.1489   44.1004 R4         2 LUT      0.089716
    202 H191       70.1084   59.8874   45.6300 R4         2 LUT      0.089716
    203 H183       67.8889   63.9624   46.9841 R1         2 LUT      0.094572
    204 H182       66.3582   64.0063   47.8677 R1         2 LUT      0.094572
    205 H181       67.6987   65.1647   48.1857 R1         2 LUT      0.094572
    206 H173       69.8981   62.6734   51.7041 T4         2 LUT      0.093752
    207 H172       70.2065   61.0582   51.8224 T4         2 LUT      0.093752
    208 H171       71.0617   61.8655   50.5647 T4         2 LUT      0.093752
    209 H163       69.4702   59.1789   50.4230 T4         2 LUT      0.093752
    210 H162       68.6913   59.5900   48.8885 T4         2 LUT      0.093752
    211 H161       70.4269   59.9234   49.1929 T4         2 LUT      0.093752
    212 HO3        67.1349   63.5453   53.1845 Q1         2 LUT      0.300121
    213 H8         70.7447   63.0958   47.3318 U7         2 LUT      0.080784
    214 H7         68.6222   61.0392   47.0828 U6         2 LUT      0.042190
    215 H42        66.2436   63.8644   50.1333 U5         2 LUT      0.145166
    216 H41        67.7113   64.6072   50.6229 U5         2 LUT      0.145166
    217 H35        77.7638   65.2074   42.4827 T3         2 LUT      0.077919
    218 H34        78.6213   63.8700   39.8163 T2         2 LUT      0.073626
    219 H32        80.6396   64.4117   38.8048 T1         2 LUT      0.092510
    220 H31        82.3868   66.5951   39.9587 U9         2 LUT      0.070048
    221 H30        82.6323   64.4827   37.6304 U8         2 LUT      0.085442
    222 H3         66.1165   62.5128   51.5928 U3         2 LUT     -0.031596
    223 H28        84.2399   65.0887   35.8271 U7         2 LUT      0.084728
    224 H27        86.3307   67.2505   36.5628 U6         2 LUT      0.087291
    225 H26        86.0190   64.7241   34.7176 Q6         2 LUT      0.075325
    226 H24        87.1727   66.4192   31.5270 Q5         2 LUT      0.094482
    227 H23        89.2825   66.3095   32.9740 U3         2 LUT     -0.024869
    228 H22        67.0375   61.2493   50.1600 U2         2 LUT      0.127376
    229 H21        67.8115   60.7656   51.7957 U2         2 LUT      0.127376
    230 H15        76.4396   63.1501   40.6781 T3         2 LUT      0.093200
    231 H14        75.8202   64.1182   43.4376 T2         2 LUT      0.068865
    232 H12        73.7210   63.9528   44.1955 T1         2 LUT      0.095507
    233 H11        71.8892   61.6810   43.0425 U9         2 LUT      0.068930
    234 H10        72.0801   63.4002   45.6239 U8         2 LUT      0.083911
    235 H1         89.2999   65.1417   30.8469 Q1         2 LUT      0.297311
@<TRIPOS>BOND
    1     6     1 1
    2     7     2 1
    3     8     3 1
    4     9     4 1
    5    11     4 1
    6    12     6 1
    7    13     9 1
    8    16     9 1
    9    25     5 1
   10    25    16 1
   11    26    10 1
   12    26    17 1
   13    27    18 1
   14    28    14 1
   15    28    19 1
   16    29    12 1
   17    30    13 1
   18    31    24 1
   19    32     1 1
   20    32    25 1
   21    33    21 1
   22    33    26 1
   23    34    22 1
   24    34    27 1
   25    35    23 1
   26    35    28 1
   27    36    12 1
   28    36    24 1
   29    37    13 1
   30    37    15 1
   31    38    31 1
   32    39    20 1
   33    39    32 1
   34    40     2 1
   35    40    33 1
   36    41     3 1
   37    41    34 1
   38    42     4 1
   39    42    35 1
   40    43    38 1
   41    44     5 1
   42    44    17 1
   43    44    39 1
   44    45    10 1
   45    45    18 1
   46    45    40 1
   47    46    19 1
   48    46    41 1
   49    47    14 1
   50    47    16 1
   51    47    42 1
   52    48    38 1
   53    49    48 1
   54    50    49 1
   55    51    50 1
   56    52    51 1
   57    53    51 1
   58    54    53 1
   59    55    54 1
   60    56    55 1
   61    57    56 1
   62    58    56 1
   63    59    58 1
   64    60    59 1
   65    61    60 1
   66    62    61 1
   67    63    61 1
   68    64    27 1
   69    64    46 1
   70    65     5 1
   71    65    10 1
   72    65    64 1
   73    65    14 1
   74    66    23 1
   75    67    23 1
   76    68    23 1
   77    69    22 1
   78    70    22 1
   79    71    22 1
   80    72    21 1
   81    73    21 1
   82    74    21 1
   83    75    20 1
   84    76    20 1
   85    77    20 1
   86    78    15 1
   87    79    15 1
   88    80    15 1
   89    81     8 1
   90    82     8 1
   91    83     8 1
   92    84     7 1
   93    85     7 1
   94    86     6 1
   95    87     6 1
   96    88     3 1
   97    89     3 1
   98    90     1 1
   99    91     1 1
  100    92    63 1
  101    93    63 1
  102    94    63 1
  103    95    62 1
  104    96    62 1
  105    97    62 1
  106    98    60 1
  107    99    60 1
  108   100    59 1
  109   101    59 1
  110   102    58 1
  111   103    58 1
  112   104    57 1
  113   105    57 1
  114   106    57 1
  115   107    55 1
  116   108    55 1
  117   109    54 1
  118   110    54 1
  119   111    53 1
  120   112    53 1
  121   113    19 1
  122   114    18 1
  123   115    17 1
  124   116     9 1
  125   117     2 1
  126   118    52 1
  127   119    52 1
  128   120    52 1
  129   121    51 1
  130   122    50 1
  131   123    50 1
  132   124    49 1
  133   125    49 1
  134   126    48 1
  135   127    48 1
  136   128    43 1
  137   129    43 1
  138   130    43 1
  139   131    39 1
  140   132    32 1
  141   133    31 1
  142   134    61 1
  143   135    56 1
  144   136    24 1
  145   137    24 1
  146   139   138 1
  147   140   139 1
  148   141   140 1
  149   142   140 1
  150   143   142 1
  151   144   138 1
  152   144   143 1
  153   145   144 1
  154   146   145 1
  155   147   146 1
  156   148   147 1
  157   149   148 1
  158   150   149 1
  159   151   150 1
  160   152   151 1
  161   153   152 1
  162   154   138 1
  163   155   138 1
  164   156   143 1
  165   157   147 1
  166   158   151 1
  167   160   159 1
  168   161   160 1
  169   162   161 1
  170   163   161 1
  171   164   163 1
  172   165   159 1
  173   165   164 1
  174   166   165 1
  175   167   166 1
  176   168   167 1
  177   169   168 1
  178   170   169 1
  179   171   170 1
  180   172   171 1
  181   173   172 1
  182   174   153 1
  183   174   173 1
  184   175   159 1
  185   176   159 1
  186   177   164 1
  187   178   168 1
  188   179   172 1
  189   180   179 1
  190   181   179 1
  191   182   179 1
  192   183   178 1
  193   184   178 1
  194   185   178 1
  195   186   177 1
  196   187   177 1
  197   188   177 1
  198   189   176 1
  199   190   176 1
  200   191   176 1
  201   192   175 1
  202   193   175 1
  203   194   175 1
  204   195   160 1
  205   196   160 1
  206   197   158 1
  207   198   158 1
  208   199   158 1
  209   200   157 1
  210   201   157 1
  211   202   157 1
  212   203   156 1
  213   204   156 1
  214   205   156 1
  215   206   155 1
  216   207   155 1
  217   208   155 1
  218   209   154 1
  219   210   154 1
  220   211   154 1
  221   212   141 1
  222   213   146 1
  223   214   145 1
  224   215   142 1
  225   216   142 1
  226   217   174 1
  227   218   173 1
  228   219   171 1
  229   220   170 1
  230   221   169 1
  231   222   140 1
  232   223   167 1
  233   224   166 1
  234   225   165 1
  235   226   163 1
  236   227   161 1
  237   228   139 1
  238   229   139 1
  239   230   153 1
  240   231   152 1
  241   232   150 1
  242   233   149 1
  243   234   148 1
  244   235   162 1
  245   65    153 1
  246   65    174 1
@<TRIPOS>SUBSTRUCTURE
      1 CLA               1 ****               0 ****  **** 
      2 LUT             138 ****               0 ****  **** 
