@<TRIPOS>MOLECULE
Cpptraj generated mol2 file.
  235   246     2     0     0
SMALL
USER_CHARGES


@<TRIPOS>ATOM
      1 CAA        79.2601   59.1939   33.6799 a2         1 CLA     -0.055900
      2 CAB        79.0430   62.8651   42.6011 c8         1 CLA     -0.148500
      3 CAC        72.3818   58.4000   41.9296 a2         1 CLA     -0.012600
      4 CAD        75.1209   56.5523   34.6718 ck         1 CLA      0.398800
      5 NA         78.1413   59.3710   36.9597 ns         1 CLA     -0.225500
      6 CBA        80.3728   59.0125   32.6419 a2         1 CLA     -0.135000
      7 CBB        80.2796   63.1205   43.1443 c0         1 CLA     -0.395200
      8 CBC        72.8593   56.9177   42.2807 a3         1 CLA     -0.037700
      9 CBD        76.5210   57.0168   34.4535 a1         1 CLA     -0.053900
     10 NB         77.9790   60.8372   39.6183 nm         1 CLA     -0.295700
     11 OBD        74.5123   55.8412   33.8437 o2         1 CLA     -0.494600
     12 CGA        81.0158   57.6402   32.2973 c4         1 CLA      0.827000
     13 CGD        77.5321   55.8357   34.2175 c4         1 CLA      0.655300
     14 ND         75.3867   58.4694   37.5343 nm         1 CLA     -0.291600
     15 CED        77.8965   53.5090   34.4905 a3         1 CLA      0.005400
     16 CHA        76.8357   57.9610   35.6049 cs         1 CLA     -0.123800
     17 CHB        79.9072   60.6131   38.1020 aa         1 CLA     -0.291900
     18 CHC        76.7026   60.9237   41.6727 aa         1 CLA     -0.090400
     19 CHD        73.6258   58.2154   39.1626 aa         1 CLA     -0.052000
     20 CMA        81.5985   58.5428   36.4695 a3         1 CLA     -0.230700
     21 CMB        81.0870   62.8036   39.8848 a3         1 CLA     -0.180800
     22 CMC        74.1430   60.7314   43.5602 a3         1 CLA     -0.134000
     23 CMD        72.2935   56.4696   36.6340 a3         1 CLA     -0.141100
     24 C1         82.6767   56.0583   32.9197 a2         1 CLA      0.023000
     25 C1A        78.0318   58.6147   35.8319 ac         1 CLA     -0.015100
     26 C1B        79.2337   61.1934   39.2066 cr         1 CLA      0.054700
     27 C1C        75.5492   60.2084   41.3961 cn         1 CLA     -0.005600
     28 C1D        74.2124   57.8973   37.8781 ap         1 CLA     -0.047300
     29 O1A        80.7371   56.8609   31.3588 o2         1 CLA     -0.610800
     30 O1D        78.4217   55.7511   33.3688 o2         1 CLA     -0.558200
     31 C2         82.9968   55.6653   34.3188 c8         1 CLA     -0.325100
     32 C2A        79.4001   58.5886   35.0790 a1         1 CLA      0.098600
     33 C2B        79.8534   62.0855   40.1992 cb         1 CLA      0.088500
     34 C2C        74.3812   60.0261   42.2464 cb         1 CLA      0.053700
     35 C2D        73.6726   57.0865   36.7685 cb         1 CLA      0.058900
     36 O2A        82.0166   57.4338   33.1073 o1         1 CLA     -0.437200
     37 O2D        77.2911   54.7617   35.0164 o1         1 CLA     -0.357600
     38 C3         83.2457   54.3955   34.7088 c5         1 CLA      0.031200
     39 C3A        80.4494   59.3482   35.9879 a1         1 CLA      0.166800
     40 C3B        78.9309   62.1385   41.2751 cb         1 CLA      0.035000
     41 C3C        73.5746   59.1832   41.4971 cb         1 CLA     -0.089900
     42 C3D        74.7118   57.0466   35.9029 cb         1 CLA     -0.035900
     43 C4         82.2075   53.4009   35.1488 a3         1 CLA     -0.053300
     44 C4A        79.4710   59.7924   37.0735 ac         1 CLA      0.001800
     45 C4B        77.8132   61.2769   40.8825 cn         1 CLA     -0.020900
     46 C4C        74.1531   59.0216   40.1942 cr         1 CLA     -0.044400
     47 C4D        75.7020   57.8846   36.4496 c6         1 CLA     -0.046000
     48 C5         84.7124   53.9093   34.9331 a2         1 CLA     -0.070400
     49 C6         85.7364   54.8827   35.5169 a2         1 CLA      0.043900
     50 C7         85.3758   55.3938   36.8754 a2         1 CLA     -0.150000
     51 C8         86.2404   56.5876   37.4377 a1         1 CLA      0.064200
     52 C9         87.7212   56.4373   37.3306 a3         1 CLA     -0.259300
     53 C10        85.9801   56.9279   38.9357 a2         1 CLA     -0.071900
     54 C11        84.4910   57.1379   39.2558 a2         1 CLA      0.014500
     55 C12        84.3127   57.6870   40.7313 a2         1 CLA     -0.112100
     56 C13        82.8324   57.6905   41.2417 a1         1 CLA      0.089200
     57 C14        82.1273   58.9837   40.9089 a3         1 CLA     -0.239100
     58 C15        82.7002   57.2948   42.7630 a2         1 CLA     -0.102200
     59 C16        83.4707   58.1716   43.7647 a2         1 CLA      0.023900
     60 C17        83.2493   57.8050   45.2491 a2         1 CLA     -0.105700
     61 C18        84.3010   58.5186   46.1690 a1         1 CLA      0.206800
     62 C19        83.9609   58.0755   47.6636 a3         1 CLA     -0.280100
     63 C20        85.8108   58.2032   45.8684 a3         1 CLA     -0.280100
     64 NC         75.3466   59.6249   40.2066 nx         1 CLA     -0.309200
     65 MG         76.6443   59.6844   38.5396 mg         1 CLA      0.895000
     66 HMD3       71.5391   57.1338   36.3193 dc         1 CLA      0.064300
     67 HMD2       72.2006   55.6683   35.9952 dc         1 CLA      0.064300
     68 HMD1       72.0526   56.1327   37.5903 dc         1 CLA      0.064300
     69 HMC3       73.0976   60.5275   43.8979 dc         1 CLA      0.052100
     70 HMC2       74.7847   60.3858   44.3914 dc         1 CLA      0.052100
     71 HMC1       74.2549   61.8074   43.4912 dc         1 CLA      0.052100
     72 HMB3       81.1038   63.1650   38.8544 dc         1 CLA      0.063600
     73 HMB2       81.1733   63.7328   40.4664 dc         1 CLA      0.063600
     74 HMB1       82.0330   62.2867   40.2030 dc         1 CLA      0.063600
     75 HMA3       82.1765   58.1004   35.6778 dc         1 CLA      0.058300
     76 HMA2       82.3326   59.1074   37.0209 dc         1 CLA      0.058300
     77 HMA1       81.2876   57.7202   37.1212 dc         1 CLA      0.058300
     78 HED3       78.8909   53.6515   34.0941 dc         1 CLA      0.079300
     79 HED2       77.8681   52.7311   35.2914 dc         1 CLA      0.079300
     80 HED1       77.2782   53.0963   33.6374 dc         1 CLA      0.079300
     81 HBC3       73.7686   56.9810   42.8565 dc         1 CLA      0.016300
     82 HBC2       72.0574   56.4404   42.8053 dc         1 CLA      0.016300
     83 HBC1       73.0465   56.3959   41.3613 dc         1 CLA      0.016300
     84 HBB2       80.4891   63.4107   44.1965 da         1 CLA      0.183000
     85 HBB1       81.2207   62.8081   42.5563 da         1 CLA      0.183000
     86 HBA2       80.0606   59.3732   31.6180 dc         1 CLA      0.029400
     87 HBA1       81.2044   59.5796   33.1308 dc         1 CLA      0.029400
     88 HAC2       72.1340   58.8922   42.8552 dc         1 CLA      0.029300
     89 HAC1       71.6260   58.3869   41.1962 dc         1 CLA      0.029300
     90 HAA2       78.3556   58.7617   33.1747 dc         1 CLA      0.028700
     91 HAA1       78.9326   60.2196   33.8331 dc         1 CLA      0.028700
     92 H203       86.0655   58.6032   44.9134 dc         1 CLA      0.065600
     93 H202       86.4626   58.6780   46.6148 dc         1 CLA      0.065600
     94 H201       85.9591   57.1458   46.0355 dc         1 CLA      0.065600
     95 H193       82.8714   58.1490   47.9667 dc         1 CLA      0.065600
     96 H192       84.2239   57.0574   47.8412 dc         1 CLA      0.065600
     97 H191       84.4633   58.8338   48.2946 dc         1 CLA      0.065600
     98 H172       82.2808   58.2300   45.5670 dc         1 CLA      0.027600
     99 H171       83.3390   56.6982   45.3409 dc         1 CLA      0.027600
    100 H162       84.5289   57.9161   43.5951 dc         1 CLA      0.002900
    101 H161       83.3402   59.2373   43.4723 dc         1 CLA      0.002900
    102 H152       81.7059   57.5385   43.0237 dc         1 CLA      0.029100
    103 H151       82.8541   56.2196   42.8852 dc         1 CLA      0.029100
    104 H143       81.0568   59.0304   41.0876 dc         1 CLA      0.063600
    105 H142       82.5572   59.8988   41.4174 dc         1 CLA      0.063600
    106 H141       82.2060   59.1039   39.8127 dc         1 CLA      0.063600
    107 H122       84.7657   57.0492   41.4960 dc         1 CLA      0.032500
    108 H121       84.8107   58.6755   40.8255 dc         1 CLA      0.032500
    109 H112       84.1480   57.8741   38.5233 dc         1 CLA      0.006600
    110 H111       83.8836   56.2188   39.1146 dc         1 CLA      0.006600
    111 H102       86.3855   56.1957   39.6600 dc         1 CLA      0.024100
    112 H101       86.5168   57.8201   39.2043 dc         1 CLA      0.024100
    113 HHD        72.7301   57.6846   39.3430 da         1 CLA      0.174300
    114 HHC        76.6421   61.4245   42.6318 da         1 CLA      0.136800
    115 HHB        80.9381   60.9098   38.0910 da         1 CLA      0.138300
    116 HBD        76.4862   57.6574   33.5925 dc         1 CLA      0.107700
    117 HAB        78.1806   63.0064   43.2700 da         1 CLA      0.155200
    118 H93        88.0947   55.5280   37.7377 dc         1 CLA      0.069500
    119 H92        87.9651   56.4096   36.2485 dc         1 CLA      0.069500
    120 H91        88.1938   57.3197   37.6880 dc         1 CLA      0.069500
    121 H8         85.9852   57.4871   36.8813 dc         1 CLA      0.029300
    122 H72        84.3103   55.6651   36.8014 dc         1 CLA      0.044400
    123 H71        85.3032   54.5026   37.5577 dc         1 CLA      0.044400
    124 H62        86.6979   54.3725   35.6166 dc         1 CLA      0.015600
    125 H61        85.7813   55.7777   34.9327 dc         1 CLA      0.015600
    126 H52        84.7179   53.1096   35.6641 dc         1 CLA      0.033200
    127 H51        85.1521   53.5942   33.9898 dc         1 CLA      0.033200
    128 H43        82.4285   53.1132   36.1186 dc         1 CLA      0.037000
    129 H42        81.2566   53.9649   35.1040 dc         1 CLA      0.037000
    130 H41        82.2050   52.5430   34.4914 dc         1 CLA      0.037000
    131 H3A        80.7159   60.2198   35.4383 dc         1 CLA      0.041100
    132 H2A        79.6221   57.5173   34.9410 dc         1 CLA      0.083100
    133 H2         83.1209   56.4144   35.0875 da         1 CLA      0.180900
    134 H18        84.3038   59.5918   46.0510 dc         1 CLA     -0.003900
    135 H13        82.2906   56.8392   40.7247 dc         1 CLA      0.019700
    136 H12        82.1157   55.1442   32.7251 dc         1 CLA      0.120400
    137 H11        83.5372   56.1848   32.2139 dc         1 CLA      0.120400
    138 C1         69.0232   61.4417   49.7451 Z1         2 LUT      0.509236
    139 C2         68.4301   62.0946   51.0071 Z2         2 LUT     -0.434695
    140 C3         66.9887   62.5913   50.9175 Z3         2 LUT      0.437453
    141 O3         66.6491   63.2816   52.0732 S1         2 LUT     -0.547129
    142 C4         66.8338   63.5189   49.7314 Z4         2 LUT     -0.468603
    143 C5         67.5500   63.1134   48.4971 Z5         2 LUT      0.279246
    144 C6         68.4877   62.1737   48.4813 Z6         2 LUT     -0.305473
    145 C7         69.3207   61.9176   47.2307 Z7         2 LUT      0.069402
    146 C8         70.1105   62.7954   46.5364 Z8         2 LUT     -0.191631
    147 C9         70.6503   62.5303   45.2127 Z9         2 LUT      0.196698
    148 C10        71.5691   63.4914   44.7111 Y1         2 LUT     -0.208611
    149 C11        72.2022   63.5520   43.4774 Y2         2 LUT      0.030784
    150 C12        73.3260   64.3424   43.1476 Y3         2 LUT     -0.220316
    151 C13        74.2028   64.1471   41.9161 Y4         2 LUT      0.215937
    152 C14        75.3456   64.9058   41.8320 Y5         2 LUT     -0.185793
    153 C15        76.3926   64.7916   40.9092 Y6         2 LUT     -0.057835
    154 C16        68.4628   59.9936   49.6590 Y7         2 LUT     -0.405615
    155 C17        70.5571   61.4667   49.8426 Y7         2 LUT     -0.405615
    156 C18        67.2266   64.0330   47.3305 Y9         2 LUT     -0.369639
    157 C19        70.2574   61.3797   44.3806 W1         2 LUT     -0.333362
    158 C20        73.7300   63.3141   40.7823 W2         2 LUT     -0.323439
    159 C21        87.5009   66.1717   34.4093 Z1         2 LUT      0.406104
    160 C22        88.2427   65.8209   33.0768 Z2         2 LUT     -0.404965
    161 C23        88.2382   66.9336   32.0709 Z3         2 LUT      0.391255
    162 O23        89.0701   66.6329   30.9264 S1         2 LUT     -0.528210
    163 C24        86.9546   67.5834   31.8287 W6         2 LUT     -0.258361
    164 C25        86.0033   67.5737   32.7403 Z5         2 LUT      0.133546
    165 C26        86.1430   66.8382   34.0549 W8         2 LUT     -0.147008
    166 C27        85.4769   67.3335   35.3083 Z7         2 LUT      0.023843
    167 C28        84.4010   66.9371   36.0292 Z8         2 LUT     -0.216987
    168 C29        83.9255   67.4583   37.3075 Z9         2 LUT      0.206524
    169 C30        82.6523   66.9948   37.6899 Y1         2 LUT     -0.215556
    170 C31        81.7968   67.1529   38.8731 Y2         2 LUT      0.025142
    171 C32        80.5919   66.5088   39.0483 Y3         2 LUT     -0.212209
    172 C33        79.7350   66.3760   40.2224 Y4         2 LUT      0.240937
    173 C34        78.6239   65.5516   40.1605 Y5         2 LUT     -0.218862
    174 C35        77.5334   65.5536   41.0677 Y6         2 LUT     -0.023547
    175 C36        88.3060   67.2298   35.2347 Y7         2 LUT     -0.393485
    176 C37        87.5968   64.9702   35.2680 Y7         2 LUT     -0.393485
    177 C38        84.7881   68.4020   32.5294 Y9         2 LUT     -0.387526
    178 C39        84.6768   68.3697   38.1341 W1         2 LUT     -0.322618
    179 C40        80.2433   67.0780   41.4797 W2         2 LUT     -0.358472
    180 H403       80.2168   68.2451   41.4175 R7         2 LUT      0.097720
    181 H402       79.7080   66.8063   42.3464 R7         2 LUT      0.097720
    182 H401       81.2970   66.8547   41.5816 R7         2 LUT      0.097720
    183 H393       84.8572   69.2819   37.6463 R4         2 LUT      0.082505
    184 H392       84.3008   68.6108   39.1450 R4         2 LUT      0.082505
    185 H391       85.6336   67.9246   38.3824 R4         2 LUT      0.082505
    186 H383       85.0103   69.5148   32.3636 R1         2 LUT      0.104030
    187 H382       84.2859   67.9945   31.6477 R1         2 LUT      0.104030
    188 H381       83.9850   68.2158   33.3039 R1         2 LUT      0.104030
    189 H373       87.3509   65.1069   36.3083 T4         2 LUT      0.089537
    190 H372       86.8416   64.1815   34.9930 T4         2 LUT      0.089537
    191 H371       88.6402   64.5693   35.2906 T4         2 LUT      0.089537
    192 H363       88.1066   67.2094   36.3404 T4         2 LUT      0.089537
    193 H362       89.4267   67.0021   35.3088 T4         2 LUT      0.089537
    194 H361       88.3157   68.2767   34.8597 T4         2 LUT      0.089537
    195 H222       89.2661   65.7274   33.3277 U2         2 LUT      0.127376
    196 H221       87.8228   64.9842   32.5650 U2         2 LUT      0.127376
    197 H203       72.9152   62.6487   40.9102 R7         2 LUT      0.087068
    198 H202       73.4734   63.9968   39.9961 R7         2 LUT      0.087068
    199 H201       74.5118   62.6780   40.2998 R7         2 LUT      0.087068
    200 H193       69.2568   61.4711   44.0346 R4         2 LUT      0.089716
    201 H192       70.8304   61.2541   43.4925 R4         2 LUT      0.089716
    202 H191       70.3866   60.4885   44.9448 R4         2 LUT      0.089716
    203 H183       67.1428   63.4978   46.4465 R1         2 LUT      0.094572
    204 H182       66.2524   64.4982   47.4447 R1         2 LUT      0.094572
    205 H181       68.0062   64.7736   47.1306 R1         2 LUT      0.094572
    206 H173       70.8044   60.8782   50.7166 T4         2 LUT      0.093752
    207 H172       71.0747   61.0678   48.9834 T4         2 LUT      0.093752
    208 H171       70.9614   62.4887   49.8877 T4         2 LUT      0.093752
    209 H163       68.7452   59.5167   48.6990 T4         2 LUT      0.093752
    210 H162       68.6995   59.2601   50.4593 T4         2 LUT      0.093752
    211 H161       67.3898   59.9764   49.6174 T4         2 LUT      0.093752
    212 HO3        66.4085   62.6468   52.7884 Q1         2 LUT      0.300121
    213 H8         70.2677   63.8526   46.8719 U7         2 LUT      0.080784
    214 H7         69.2031   60.9498   46.8298 U6         2 LUT      0.042190
    215 H42        65.7724   63.4030   49.5788 U5         2 LUT      0.145166
    216 H41        66.9437   64.5910   49.9708 U5         2 LUT      0.145166
    217 H35        77.5658   66.2405   41.8866 T3         2 LUT      0.077919
    218 H34        78.3685   64.9827   39.2476 T2         2 LUT      0.073626
    219 H32        80.3568   65.8074   38.2142 T1         2 LUT      0.092510
    220 H31        82.0616   67.6699   39.7064 U9         2 LUT      0.070048
    221 H30        82.1346   66.3315   36.9924 U8         2 LUT      0.085442
    222 H3         66.4157   61.6498   50.7281 U3         2 LUT     -0.031596
    223 H28        83.9346   66.1726   35.5482 U7         2 LUT      0.084728
    224 H27        86.0210   68.2319   35.7030 U6         2 LUT      0.087291
    225 H26        85.5816   66.0421   33.6907 Q6         2 LUT      0.075325
    226 H24        86.9911   67.9989   30.8425 Q5         2 LUT      0.094482
    227 H23        88.7674   67.7891   32.5195 U3         2 LUT     -0.024869
    228 H22        68.6421   61.4322   51.8829 U2         2 LUT      0.127376
    229 H21        69.0073   63.0108   51.1063 U2         2 LUT      0.127376
    230 H15        76.3461   64.1044   40.1182 T3         2 LUT      0.093200
    231 H14        75.5380   65.4547   42.7521 T2         2 LUT      0.068865
    232 H12        73.7245   64.8599   44.0172 T1         2 LUT      0.095507
    233 H11        71.9401   62.8037   42.7534 U9         2 LUT      0.068930
    234 H10        71.8099   64.3293   45.3521 U8         2 LUT      0.083911
    235 H1         88.5901   66.4146   30.1359 Q1         2 LUT      0.297311
@<TRIPOS>BOND
    1     6     1 1
    2     7     2 1
    3     8     3 1
    4     9     4 1
    5    11     4 1
    6    12     6 1
    7    13     9 1
    8    16     9 1
    9    25     5 1
   10    25    16 1
   11    26    10 1
   12    26    17 1
   13    27    18 1
   14    28    14 1
   15    28    19 1
   16    29    12 1
   17    30    13 1
   18    31    24 1
   19    32     1 1
   20    32    25 1
   21    33    21 1
   22    33    26 1
   23    34    22 1
   24    34    27 1
   25    35    23 1
   26    35    28 1
   27    36    12 1
   28    36    24 1
   29    37    13 1
   30    37    15 1
   31    38    31 1
   32    39    20 1
   33    39    32 1
   34    40     2 1
   35    40    33 1
   36    41     3 1
   37    41    34 1
   38    42     4 1
   39    42    35 1
   40    43    38 1
   41    44     5 1
   42    44    17 1
   43    44    39 1
   44    45    10 1
   45    45    18 1
   46    45    40 1
   47    46    19 1
   48    46    41 1
   49    47    14 1
   50    47    16 1
   51    47    42 1
   52    48    38 1
   53    49    48 1
   54    50    49 1
   55    51    50 1
   56    52    51 1
   57    53    51 1
   58    54    53 1
   59    55    54 1
   60    56    55 1
   61    57    56 1
   62    58    56 1
   63    59    58 1
   64    60    59 1
   65    61    60 1
   66    62    61 1
   67    63    61 1
   68    64    27 1
   69    64    46 1
   70    65     5 1
   71    65    10 1
   72    65    64 1
   73    65    14 1
   74    66    23 1
   75    67    23 1
   76    68    23 1
   77    69    22 1
   78    70    22 1
   79    71    22 1
   80    72    21 1
   81    73    21 1
   82    74    21 1
   83    75    20 1
   84    76    20 1
   85    77    20 1
   86    78    15 1
   87    79    15 1
   88    80    15 1
   89    81     8 1
   90    82     8 1
   91    83     8 1
   92    84     7 1
   93    85     7 1
   94    86     6 1
   95    87     6 1
   96    88     3 1
   97    89     3 1
   98    90     1 1
   99    91     1 1
  100    92    63 1
  101    93    63 1
  102    94    63 1
  103    95    62 1
  104    96    62 1
  105    97    62 1
  106    98    60 1
  107    99    60 1
  108   100    59 1
  109   101    59 1
  110   102    58 1
  111   103    58 1
  112   104    57 1
  113   105    57 1
  114   106    57 1
  115   107    55 1
  116   108    55 1
  117   109    54 1
  118   110    54 1
  119   111    53 1
  120   112    53 1
  121   113    19 1
  122   114    18 1
  123   115    17 1
  124   116     9 1
  125   117     2 1
  126   118    52 1
  127   119    52 1
  128   120    52 1
  129   121    51 1
  130   122    50 1
  131   123    50 1
  132   124    49 1
  133   125    49 1
  134   126    48 1
  135   127    48 1
  136   128    43 1
  137   129    43 1
  138   130    43 1
  139   131    39 1
  140   132    32 1
  141   133    31 1
  142   134    61 1
  143   135    56 1
  144   136    24 1
  145   137    24 1
  146   139   138 1
  147   140   139 1
  148   141   140 1
  149   142   140 1
  150   143   142 1
  151   144   138 1
  152   144   143 1
  153   145   144 1
  154   146   145 1
  155   147   146 1
  156   148   147 1
  157   149   148 1
  158   150   149 1
  159   151   150 1
  160   152   151 1
  161   153   152 1
  162   154   138 1
  163   155   138 1
  164   156   143 1
  165   157   147 1
  166   158   151 1
  167   160   159 1
  168   161   160 1
  169   162   161 1
  170   163   161 1
  171   164   163 1
  172   165   159 1
  173   165   164 1
  174   166   165 1
  175   167   166 1
  176   168   167 1
  177   169   168 1
  178   170   169 1
  179   171   170 1
  180   172   171 1
  181   173   172 1
  182   174   153 1
  183   174   173 1
  184   175   159 1
  185   176   159 1
  186   177   164 1
  187   178   168 1
  188   179   172 1
  189   180   179 1
  190   181   179 1
  191   182   179 1
  192   183   178 1
  193   184   178 1
  194   185   178 1
  195   186   177 1
  196   187   177 1
  197   188   177 1
  198   189   176 1
  199   190   176 1
  200   191   176 1
  201   192   175 1
  202   193   175 1
  203   194   175 1
  204   195   160 1
  205   196   160 1
  206   197   158 1
  207   198   158 1
  208   199   158 1
  209   200   157 1
  210   201   157 1
  211   202   157 1
  212   203   156 1
  213   204   156 1
  214   205   156 1
  215   206   155 1
  216   207   155 1
  217   208   155 1
  218   209   154 1
  219   210   154 1
  220   211   154 1
  221   212   141 1
  222   213   146 1
  223   214   145 1
  224   215   142 1
  225   216   142 1
  226   217   174 1
  227   218   173 1
  228   219   171 1
  229   220   170 1
  230   221   169 1
  231   222   140 1
  232   223   167 1
  233   224   166 1
  234   225   165 1
  235   226   163 1
  236   227   161 1
  237   228   139 1
  238   229   139 1
  239   230   153 1
  240   231   152 1
  241   232   150 1
  242   233   149 1
  243   234   148 1
  244   235   162 1
  245   65    153 1
  246   65    174 1
@<TRIPOS>SUBSTRUCTURE
      1 CLA               1 ****               0 ****  **** 
      2 LUT             138 ****               0 ****  **** 
