@<TRIPOS>MOLECULE
Cpptraj generated mol2 file.
  235   246     2     0     0
SMALL
USER_CHARGES


@<TRIPOS>ATOM
      1 CAA        80.0767   58.3142   34.1102 a2         1 CLA     -0.055900
      2 CAB        80.4035   61.9292   42.9956 c8         1 CLA     -0.148500
      3 CAC        73.1997   58.3241   42.6007 a2         1 CLA     -0.012600
      4 CAD        76.0134   55.5693   35.5041 ck         1 CLA      0.398800
      5 NA         79.0819   58.7035   37.5727 ns         1 CLA     -0.225500
      6 CBA        81.4028   58.0885   33.3523 a2         1 CLA     -0.135000
      7 CBB        79.8967   61.3773   44.1060 c0         1 CLA     -0.395200
      8 CBC        73.2198   56.8281   42.8787 a3         1 CLA     -0.037700
      9 CBD        77.4992   56.0507   35.2531 a1         1 CLA     -0.053900
     10 NB         78.9961   60.3920   39.9226 nm         1 CLA     -0.295700
     11 OBD        75.4758   54.6817   34.8512 o2         1 CLA     -0.494600
     12 CGA        81.6965   56.6564   32.8764 c4         1 CLA      0.827000
     13 CGD        78.2892   54.8248   35.3167 c4         1 CLA      0.655300
     14 ND         76.3326   57.7835   38.1923 nm         1 CLA     -0.291600
     15 CED        79.0047   53.1090   36.8289 a3         1 CLA      0.005400
     16 CHA        77.7473   57.1424   36.2638 cs         1 CLA     -0.123800
     17 CHB        80.9309   60.1684   38.3816 aa         1 CLA     -0.291900
     18 CHC        77.6452   60.7744   41.9286 aa         1 CLA     -0.090400
     19 CHD        74.5048   57.9108   39.6968 aa         1 CLA     -0.052000
     20 CMA        82.3004   57.5948   37.0064 a3         1 CLA     -0.230700
     21 CMB        82.3450   62.0744   40.4566 a3         1 CLA     -0.180800
     22 CMC        75.3303   60.3102   44.1374 a3         1 CLA     -0.134000
     23 CMD        73.1608   55.9169   37.4966 a3         1 CLA     -0.141100
     24 C1         82.3120   54.5441   33.7358 a2         1 CLA      0.023000
     25 C1A        78.8913   57.9107   36.4364 ac         1 CLA     -0.015100
     26 C1B        80.3284   60.7228   39.5376 cr         1 CLA      0.054700
     27 C1C        76.4891   60.0640   41.7534 cn         1 CLA     -0.005600
     28 C1D        75.0402   57.4686   38.4431 ap         1 CLA     -0.047300
     29 O1A        81.4705   56.1399   31.7569 o2         1 CLA     -0.610800
     30 O1D        79.0434   54.3261   34.4294 o2         1 CLA     -0.558200
     31 C2         82.7339   54.0071   35.0726 c8         1 CLA     -0.325100
     32 C2A        80.1514   57.7952   35.5954 a1         1 CLA      0.098600
     33 C2B        80.9494   61.5601   40.5061 cb         1 CLA      0.088500
     34 C2C        75.3473   59.7473   42.7229 cb         1 CLA      0.053700
     35 C2D        74.4971   56.5197   37.5084 cb         1 CLA      0.058900
     36 O2A        82.2225   55.9775   33.9330 o1         1 CLA     -0.437200
     37 O2D        78.2347   54.3208   36.5835 o1         1 CLA     -0.357600
     38 C3         83.6643   53.0113   35.1866 c5         1 CLA      0.031200
     39 C3A        81.1673   58.5283   36.4489 a1         1 CLA      0.166800
     40 C3B        80.1197   61.5482   41.6328 cb         1 CLA      0.035000
     41 C3C        74.4676   58.9331   42.0365 cb         1 CLA     -0.089900
     42 C3D        75.5457   56.3684   36.6140 cb         1 CLA     -0.035900
     43 C4         83.2433   51.5690   35.4917 a3         1 CLA     -0.053300
     44 C4A        80.4148   59.1700   37.5895 ac         1 CLA      0.001800
     45 C4B        78.8401   60.9463   41.1991 cn         1 CLA     -0.020900
     46 C4C        75.0339   58.7049   40.7600 cr         1 CLA     -0.044400
     47 C4D        76.6530   57.1742   37.0241 c6         1 CLA     -0.046000
     48 C5         85.1379   53.1638   35.2794 a2         1 CLA     -0.070400
     49 C6         85.6764   54.1421   36.2507 a2         1 CLA      0.043900
     50 C7         87.2369   53.9834   36.4893 a2         1 CLA     -0.150000
     51 C8         87.9597   55.1509   37.2459 a1         1 CLA      0.064200
     52 C9         89.4657   54.7391   37.4855 a3         1 CLA     -0.259300
     53 C10        87.2702   55.4953   38.5015 a2         1 CLA     -0.071900
     54 C11        87.7280   56.8351   39.1553 a2         1 CLA      0.014500
     55 C12        86.9034   57.0861   40.4450 a2         1 CLA     -0.112100
     56 C13        87.4407   57.7679   41.7395 a1         1 CLA      0.089200
     57 C14        88.3017   56.7763   42.5776 a3         1 CLA     -0.239100
     58 C15        86.2363   58.2810   42.6265 a2         1 CLA     -0.102200
     59 C16        86.5354   59.3939   43.5732 a2         1 CLA      0.023900
     60 C17        85.2781   60.0244   43.9547 a2         1 CLA     -0.105700
     61 C18        84.4622   59.4023   45.1679 a1         1 CLA      0.206800
     62 C19        85.1977   59.5876   46.4955 a3         1 CLA     -0.280100
     63 C20        83.1179   60.0814   45.1768 a3         1 CLA     -0.280100
     64 NC         76.2829   59.3668   40.6113 nx         1 CLA     -0.309200
     65 MG         77.6132   59.1725   39.0085 mg         1 CLA      0.895000
     66 HMD3       72.3913   56.6131   37.8903 dc         1 CLA      0.064300
     67 HMD2       72.9940   55.4945   36.5669 dc         1 CLA      0.064300
     68 HMD1       73.1468   54.9642   38.0523 dc         1 CLA      0.064300
     69 HMC3       75.7314   61.3238   44.0360 dc         1 CLA      0.052100
     70 HMC2       74.2835   60.3432   44.4409 dc         1 CLA      0.052100
     71 HMC1       75.9447   59.7084   44.8138 dc         1 CLA      0.052100
     72 HMB3       82.5305   62.7080   41.3436 dc         1 CLA      0.063600
     73 HMB2       83.0380   61.1959   40.5120 dc         1 CLA      0.063600
     74 HMB1       82.4904   62.6562   39.6004 dc         1 CLA      0.063600
     75 HMA3       82.9347   57.3603   36.1140 dc         1 CLA      0.058300
     76 HMA2       82.9555   58.0307   37.7485 dc         1 CLA      0.058300
     77 HMA1       81.8348   56.7044   37.3996 dc         1 CLA      0.058300
     78 HED3       78.4533   52.1914   36.7715 dc         1 CLA      0.079300
     79 HED2       79.9529   53.1035   36.2069 dc         1 CLA      0.079300
     80 HED1       79.3737   53.1461   37.8884 dc         1 CLA      0.079300
     81 HBC3       73.2770   56.3003   41.8967 dc         1 CLA      0.016300
     82 HBC2       74.0035   56.7630   43.5788 dc         1 CLA      0.016300
     83 HBC1       72.2633   56.6435   43.3986 dc         1 CLA      0.016300
     84 HBB2       80.0806   61.6377   45.1296 da         1 CLA      0.183000
     85 HBB1       79.1622   60.6212   44.0861 da         1 CLA      0.183000
     86 HBA2       81.3595   58.7298   32.5253 dc         1 CLA      0.029400
     87 HBA1       82.2940   58.4567   33.9206 dc         1 CLA      0.029400
     88 HAC2       72.8699   58.8767   43.4740 dc         1 CLA      0.029300
     89 HAC1       72.4531   58.3075   41.8166 dc         1 CLA      0.029300
     90 HAA2       79.1831   57.8962   33.6127 dc         1 CLA      0.028700
     91 HAA1       79.8897   59.4196   34.1577 dc         1 CLA      0.028700
     92 H203       82.7603   59.9236   44.1508 dc         1 CLA      0.065600
     93 H202       82.5585   59.6137   45.9615 dc         1 CLA      0.065600
     94 H201       83.3352   61.1430   45.2605 dc         1 CLA      0.065600
     95 H193       86.2589   59.2693   46.3477 dc         1 CLA      0.065600
     96 H192       85.1289   60.6610   46.9145 dc         1 CLA      0.065600
     97 H191       84.6242   58.8428   47.1170 dc         1 CLA      0.065600
     98 H172       85.5126   60.9565   44.3204 dc         1 CLA      0.027600
     99 H171       84.6343   60.2009   43.0820 dc         1 CLA      0.027600
    100 H162       87.1826   58.9863   44.4309 dc         1 CLA      0.002900
    101 H161       87.0940   60.1554   43.0093 dc         1 CLA      0.002900
    102 H152       85.4736   58.6192   41.9393 dc         1 CLA      0.029100
    103 H151       85.8749   57.3436   43.1128 dc         1 CLA      0.029100
    104 H143       87.7923   55.8985   42.9477 dc         1 CLA      0.063600
    105 H142       89.2080   56.6231   42.1620 dc         1 CLA      0.063600
    106 H141       88.5461   57.3156   43.4404 dc         1 CLA      0.063600
    107 H122       86.1346   57.7171   40.0219 dc         1 CLA      0.032500
    108 H121       86.4177   56.1162   40.6386 dc         1 CLA      0.032500
    109 H112       88.7888   56.7919   39.3407 dc         1 CLA      0.006600
    110 H111       87.5049   57.5821   38.4384 dc         1 CLA      0.006600
    111 H102       86.2447   55.6861   38.1431 dc         1 CLA      0.024100
    112 H101       87.3725   54.7055   39.2992 dc         1 CLA      0.024100
    113 HHD        73.4671   57.5785   39.7396 da         1 CLA      0.174300
    114 HHC        77.5757   61.2859   42.8304 da         1 CLA      0.136800
    115 HHB        81.9283   60.5244   38.0766 da         1 CLA      0.138300
    116 HBD        77.3189   56.3868   34.2085 dc         1 CLA      0.107700
    117 HAB        81.1494   62.7162   43.2398 da         1 CLA      0.155200
    118 H93        89.5641   53.8796   38.2134 dc         1 CLA      0.069500
    119 H92        90.0232   54.3535   36.6093 dc         1 CLA      0.069500
    120 H91        90.0210   55.6039   37.8199 dc         1 CLA      0.069500
    121 H8         87.9405   56.0118   36.5607 dc         1 CLA      0.029300
    122 H72        87.4324   52.9885   36.8484 dc         1 CLA      0.044400
    123 H71        87.5728   54.1246   35.4803 dc         1 CLA      0.044400
    124 H62        85.3488   55.1251   35.9876 dc         1 CLA      0.015600
    125 H61        85.2490   53.9155   37.2032 dc         1 CLA      0.015600
    126 H52        85.5118   52.1711   35.6072 dc         1 CLA      0.033200
    127 H51        85.6779   53.3986   34.3415 dc         1 CLA      0.033200
    128 H43        83.5853   50.8815   34.7252 dc         1 CLA      0.037000
    129 H42        83.5274   51.2597   36.4796 dc         1 CLA      0.037000
    130 H41        82.1681   51.4770   35.4833 dc         1 CLA      0.037000
    131 H3A        81.5402   59.3462   35.9659 dc         1 CLA      0.041100
    132 H2A        80.4046   56.8122   35.6098 dc         1 CLA      0.083100
    133 H2         82.4834   54.5194   36.0049 da         1 CLA      0.180900
    134 H18        84.2635   58.3025   44.9934 dc         1 CLA     -0.003900
    135 H13        88.0286   58.5918   41.4596 dc         1 CLA      0.019700
    136 H12        81.3566   54.1173   33.5192 dc         1 CLA      0.120400
    137 H11        82.9444   54.3053   32.8386 dc         1 CLA      0.120400
    138 C1         69.7870   61.4255   49.7210 Z1         2 LUT      0.509236
    139 C2         68.3935   61.3808   50.3725 Z2         2 LUT     -0.434695
    140 C3         67.7602   62.6838   50.8633 Z3         2 LUT      0.437453
    141 O3         68.4417   63.1869   52.0221 S1         2 LUT     -0.547129
    142 C4         67.9814   63.6391   49.7714 Z4         2 LUT     -0.468603
    143 C5         68.8912   63.4614   48.6259 Z5         2 LUT      0.279246
    144 C6         69.7784   62.4526   48.5745 Z6         2 LUT     -0.305473
    145 C7         70.3457   61.9655   47.2275 Z7         2 LUT      0.069402
    146 C8         71.4144   62.4804   46.5105 Z8         2 LUT     -0.191631
    147 C9         71.8953   62.2538   45.2130 Z9         2 LUT      0.196698
    148 C10        72.9343   63.0205   44.8251 Y1         2 LUT     -0.208611
    149 C11        73.5162   62.9938   43.5037 Y2         2 LUT      0.030784
    150 C12        74.6023   63.7434   43.2288 Y3         2 LUT     -0.220316
    151 C13        75.4278   63.5973   42.0735 Y4         2 LUT      0.215937
    152 C14        76.7103   64.1992   42.1692 Y5         2 LUT     -0.185793
    153 C15        77.8211   64.2412   41.2956 Y6         2 LUT     -0.057835
    154 C16        70.1567   60.0039   49.3468 Y7         2 LUT     -0.405615
    155 C17        70.8669   61.9565   50.7801 Y7         2 LUT     -0.405615
    156 C18        68.5050   64.3190   47.4552 Y9         2 LUT     -0.369639
    157 C19        71.1813   61.2968   44.3442 W1         2 LUT     -0.333362
    158 C20        74.9193   63.0633   40.7320 W2         2 LUT     -0.323439
    159 C21        89.0846   66.1051   35.2654 Z1         2 LUT      0.406104
    160 C22        89.9909   65.7694   34.0914 Z2         2 LUT     -0.404965
    161 C23        90.0304   66.7982   32.9602 Z3         2 LUT      0.391255
    162 O23        91.0325   66.3990   31.9758 S1         2 LUT     -0.528210
    163 C24        88.7430   67.4404   32.6636 W6         2 LUT     -0.258361
    164 C25        87.6871   67.3391   33.4621 Z5         2 LUT      0.133546
    165 C26        87.6746   66.5557   34.7572 W8         2 LUT     -0.147008
    166 C27        86.8474   67.2323   35.8173 Z7         2 LUT      0.023843
    167 C28        85.7396   66.6878   36.3005 Z8         2 LUT     -0.216987
    168 C29        84.9967   67.0440   37.5598 Z9         2 LUT      0.206524
    169 C30        83.9083   66.2697   37.8321 Y1         2 LUT     -0.215556
    170 C31        83.1619   66.3523   39.0254 Y2         2 LUT      0.025142
    171 C32        81.9393   65.7885   39.3357 Y3         2 LUT     -0.212209
    172 C33        81.1603   65.9760   40.5021 Y4         2 LUT      0.240937
    173 C34        80.0317   65.2192   40.6330 Y5         2 LUT     -0.218862
    174 C35        78.8842   65.0788   41.5111 Y6         2 LUT     -0.023547
    175 C36        89.8830   67.1658   36.1114 Y7         2 LUT     -0.393485
    176 C37        89.0143   64.8710   36.1214 Y7         2 LUT     -0.393485
    177 C38        86.3826   68.0534   32.9881 Y9         2 LUT     -0.387526
    178 C39        85.6048   68.0574   38.5409 W1         2 LUT     -0.322618
    179 C40        81.5304   67.0958   41.4334 W2         2 LUT     -0.358472
    180 H403       80.8161   67.0358   42.2854 R7         2 LUT      0.097720
    181 H402       82.5291   67.1254   41.8932 R7         2 LUT      0.097720
    182 H401       81.4553   68.1829   41.1793 R7         2 LUT      0.097720
    183 H393       86.2459   68.7953   38.1299 R4         2 LUT      0.082505
    184 H392       84.8571   68.6292   39.0775 R4         2 LUT      0.082505
    185 H391       86.1547   67.4965   39.2479 R4         2 LUT      0.082505
    186 H383       86.0648   68.6340   33.8663 R1         2 LUT      0.104030
    187 H382       86.4266   68.6326   32.1375 R1         2 LUT      0.104030
    188 H381       85.6221   67.2570   32.9111 R1         2 LUT      0.104030
    189 H373       90.0059   64.3231   36.2897 T4         2 LUT      0.089537
    190 H372       88.6182   65.1034   37.1106 T4         2 LUT      0.089537
    191 H371       88.3021   64.1084   35.7914 T4         2 LUT      0.089537
    192 H363       89.2382   67.4126   36.9782 T4         2 LUT      0.089537
    193 H362       90.7558   66.7451   36.7275 T4         2 LUT      0.089537
    194 H361       90.2108   68.0606   35.5858 T4         2 LUT      0.089537
    195 H222       91.0812   65.5020   34.3091 U2         2 LUT      0.127376
    196 H221       89.7225   64.7648   33.6143 U2         2 LUT      0.127376
    197 H203       74.6334   61.9920   40.8037 R7         2 LUT      0.087068
    198 H202       74.0785   63.6806   40.4883 R7         2 LUT      0.087068
    199 H201       75.6490   63.1693   39.9161 R7         2 LUT      0.087068
    200 H193       71.3572   60.2044   44.6236 R4         2 LUT      0.089716
    201 H192       70.1093   61.4513   44.3760 R4         2 LUT      0.089716
    202 H191       71.4381   61.3569   43.2848 R4         2 LUT      0.089716
    203 H183       67.5014   64.7294   47.6694 R1         2 LUT      0.094572
    204 H182       69.1765   65.1604   47.4213 R1         2 LUT      0.094572
    205 H181       68.4043   63.7731   46.4997 R1         2 LUT      0.094572
    206 H173       70.8601   63.0186   50.9890 T4         2 LUT      0.093752
    207 H172       70.7539   61.3935   51.7293 T4         2 LUT      0.093752
    208 H171       71.9190   61.8577   50.4084 T4         2 LUT      0.093752
    209 H163       71.2004   59.9152   49.0594 T4         2 LUT      0.093752
    210 H162       70.1070   59.2826   50.1555 T4         2 LUT      0.093752
    211 H161       69.5540   59.6860   48.5175 T4         2 LUT      0.093752
    212 HO3        68.1264   62.7585   52.8348 Q1         2 LUT      0.300121
    213 H8         71.8066   63.2321   47.1981 U7         2 LUT      0.080784
    214 H7         69.7546   61.1903   46.7553 U6         2 LUT      0.042190
    215 H42        67.0628   64.0118   49.4693 U5         2 LUT      0.145166
    216 H41        68.2783   64.5651   50.2976 U5         2 LUT      0.145166
    217 H35        78.8174   65.7743   42.3179 T3         2 LUT      0.077919
    218 H34        79.8616   64.5187   39.8324 T2         2 LUT      0.073626
    219 H32        81.5585   65.0757   38.6667 T1         2 LUT      0.092510
    220 H31        83.5684   67.1149   39.7609 U9         2 LUT      0.070048
    221 H30        83.6721   65.5509   37.1397 U8         2 LUT      0.085442
    222 H3         66.6243   62.6921   50.9720 U3         2 LUT     -0.031596
    223 H28        85.2226   66.0545   35.6791 U7         2 LUT      0.084728
    224 H27        87.2782   68.0111   36.4318 U6         2 LUT      0.087291
    225 H26        87.0849   65.6389   34.4362 Q6         2 LUT      0.075325
    226 H24        88.6722   67.9601   31.7283 Q5         2 LUT      0.094482
    227 H23        90.6707   67.5453   33.5558 U3         2 LUT     -0.024869
    228 H22        67.7339   60.9802   49.6123 U2         2 LUT      0.127376
    229 H21        68.4584   60.6468   51.2230 U2         2 LUT      0.127376
    230 H15        77.6744   63.6075   40.4112 T3         2 LUT      0.093200
    231 H14        76.8711   64.8176   43.1211 T2         2 LUT      0.068865
    232 H12        75.0631   64.2896   43.9873 T1         2 LUT      0.095507
    233 H11        73.0957   62.2939   42.7515 U9         2 LUT      0.068930
    234 H10        73.2949   63.7762   45.6119 U8         2 LUT      0.083911
    235 H1         90.6878   65.8180   31.2351 Q1         2 LUT      0.297311
@<TRIPOS>BOND
    1     6     1 1
    2     7     2 1
    3     8     3 1
    4     9     4 1
    5    11     4 1
    6    12     6 1
    7    13     9 1
    8    16     9 1
    9    25     5 1
   10    25    16 1
   11    26    10 1
   12    26    17 1
   13    27    18 1
   14    28    14 1
   15    28    19 1
   16    29    12 1
   17    30    13 1
   18    31    24 1
   19    32     1 1
   20    32    25 1
   21    33    21 1
   22    33    26 1
   23    34    22 1
   24    34    27 1
   25    35    23 1
   26    35    28 1
   27    36    12 1
   28    36    24 1
   29    37    13 1
   30    37    15 1
   31    38    31 1
   32    39    20 1
   33    39    32 1
   34    40     2 1
   35    40    33 1
   36    41     3 1
   37    41    34 1
   38    42     4 1
   39    42    35 1
   40    43    38 1
   41    44     5 1
   42    44    17 1
   43    44    39 1
   44    45    10 1
   45    45    18 1
   46    45    40 1
   47    46    19 1
   48    46    41 1
   49    47    14 1
   50    47    16 1
   51    47    42 1
   52    48    38 1
   53    49    48 1
   54    50    49 1
   55    51    50 1
   56    52    51 1
   57    53    51 1
   58    54    53 1
   59    55    54 1
   60    56    55 1
   61    57    56 1
   62    58    56 1
   63    59    58 1
   64    60    59 1
   65    61    60 1
   66    62    61 1
   67    63    61 1
   68    64    27 1
   69    64    46 1
   70    65     5 1
   71    65    10 1
   72    65    64 1
   73    65    14 1
   74    66    23 1
   75    67    23 1
   76    68    23 1
   77    69    22 1
   78    70    22 1
   79    71    22 1
   80    72    21 1
   81    73    21 1
   82    74    21 1
   83    75    20 1
   84    76    20 1
   85    77    20 1
   86    78    15 1
   87    79    15 1
   88    80    15 1
   89    81     8 1
   90    82     8 1
   91    83     8 1
   92    84     7 1
   93    85     7 1
   94    86     6 1
   95    87     6 1
   96    88     3 1
   97    89     3 1
   98    90     1 1
   99    91     1 1
  100    92    63 1
  101    93    63 1
  102    94    63 1
  103    95    62 1
  104    96    62 1
  105    97    62 1
  106    98    60 1
  107    99    60 1
  108   100    59 1
  109   101    59 1
  110   102    58 1
  111   103    58 1
  112   104    57 1
  113   105    57 1
  114   106    57 1
  115   107    55 1
  116   108    55 1
  117   109    54 1
  118   110    54 1
  119   111    53 1
  120   112    53 1
  121   113    19 1
  122   114    18 1
  123   115    17 1
  124   116     9 1
  125   117     2 1
  126   118    52 1
  127   119    52 1
  128   120    52 1
  129   121    51 1
  130   122    50 1
  131   123    50 1
  132   124    49 1
  133   125    49 1
  134   126    48 1
  135   127    48 1
  136   128    43 1
  137   129    43 1
  138   130    43 1
  139   131    39 1
  140   132    32 1
  141   133    31 1
  142   134    61 1
  143   135    56 1
  144   136    24 1
  145   137    24 1
  146   139   138 1
  147   140   139 1
  148   141   140 1
  149   142   140 1
  150   143   142 1
  151   144   138 1
  152   144   143 1
  153   145   144 1
  154   146   145 1
  155   147   146 1
  156   148   147 1
  157   149   148 1
  158   150   149 1
  159   151   150 1
  160   152   151 1
  161   153   152 1
  162   154   138 1
  163   155   138 1
  164   156   143 1
  165   157   147 1
  166   158   151 1
  167   160   159 1
  168   161   160 1
  169   162   161 1
  170   163   161 1
  171   164   163 1
  172   165   159 1
  173   165   164 1
  174   166   165 1
  175   167   166 1
  176   168   167 1
  177   169   168 1
  178   170   169 1
  179   171   170 1
  180   172   171 1
  181   173   172 1
  182   174   153 1
  183   174   173 1
  184   175   159 1
  185   176   159 1
  186   177   164 1
  187   178   168 1
  188   179   172 1
  189   180   179 1
  190   181   179 1
  191   182   179 1
  192   183   178 1
  193   184   178 1
  194   185   178 1
  195   186   177 1
  196   187   177 1
  197   188   177 1
  198   189   176 1
  199   190   176 1
  200   191   176 1
  201   192   175 1
  202   193   175 1
  203   194   175 1
  204   195   160 1
  205   196   160 1
  206   197   158 1
  207   198   158 1
  208   199   158 1
  209   200   157 1
  210   201   157 1
  211   202   157 1
  212   203   156 1
  213   204   156 1
  214   205   156 1
  215   206   155 1
  216   207   155 1
  217   208   155 1
  218   209   154 1
  219   210   154 1
  220   211   154 1
  221   212   141 1
  222   213   146 1
  223   214   145 1
  224   215   142 1
  225   216   142 1
  226   217   174 1
  227   218   173 1
  228   219   171 1
  229   220   170 1
  230   221   169 1
  231   222   140 1
  232   223   167 1
  233   224   166 1
  234   225   165 1
  235   226   163 1
  236   227   161 1
  237   228   139 1
  238   229   139 1
  239   230   153 1
  240   231   152 1
  241   232   150 1
  242   233   149 1
  243   234   148 1
  244   235   162 1
  245   65    153 1
  246   65    174 1
@<TRIPOS>SUBSTRUCTURE
      1 CLA               1 ****               0 ****  **** 
      2 LUT             138 ****               0 ****  **** 
