@<TRIPOS>MOLECULE
Cpptraj generated mol2 file.
  235   246     2     0     0
SMALL
USER_CHARGES


@<TRIPOS>ATOM
      1 CAA        77.2039   57.8834   35.5011 a2         1 CLA     -0.055900
      2 CAB        77.2498   61.5138   44.4159 c8         1 CLA     -0.148500
      3 CAC        70.0234   58.0452   43.7677 a2         1 CLA     -0.012600
      4 CAD        72.8515   55.4348   36.5083 ck         1 CLA      0.398800
      5 NA         76.1446   58.1594   38.7146 ns         1 CLA     -0.225500
      6 CBA        78.5462   58.0666   34.6749 a2         1 CLA     -0.135000
      7 CBB        78.4334   61.6055   45.1381 c0         1 CLA     -0.395200
      8 CBC        69.7457   56.5504   43.5898 a3         1 CLA     -0.037700
      9 CBD        74.4205   55.6784   36.3175 a1         1 CLA     -0.053900
     10 NB         76.0102   59.8070   41.3328 nm         1 CLA     -0.295700
     11 OBD        72.1358   54.8592   35.7306 o2         1 CLA     -0.494600
     12 CGA        79.3044   56.8017   34.1720 c4         1 CLA      0.827000
     13 CGD        75.1468   54.3953   36.6380 c4         1 CLA      0.655300
     14 ND         73.4229   57.4129   39.3722 nm         1 CLA     -0.291600
     15 CED        75.7361   52.8234   38.2842 a3         1 CLA      0.005400
     16 CHA        74.7977   56.7911   37.3592 cs         1 CLA     -0.123800
     17 CHB        77.9552   59.4967   39.8632 aa         1 CLA     -0.291900
     18 CHC        74.7246   60.1219   43.4445 aa         1 CLA     -0.090400
     19 CHD        71.4052   57.5585   40.9253 aa         1 CLA     -0.052000
     20 CMA        79.3944   57.0165   38.5113 a3         1 CLA     -0.230700
     21 CMB        79.3007   61.3718   42.0189 a3         1 CLA     -0.180800
     22 CMC        72.4217   59.5182   45.4992 a3         1 CLA     -0.134000
     23 CMD        70.0278   55.9746   38.5591 a3         1 CLA     -0.141100
     24 C1         80.0712   54.5648   34.8514 a2         1 CLA      0.023000
     25 C1A        76.0200   57.3498   37.6599 ac         1 CLA     -0.015100
     26 C1B        77.3540   59.9886   41.0440 cr         1 CLA      0.054700
     27 C1C        73.5692   59.3520   43.1336 cn         1 CLA     -0.005600
     28 C1D        72.0454   57.1412   39.7061 ap         1 CLA     -0.047300
     29 O1A        79.5861   56.5621   32.9697 o2         1 CLA     -0.610800
     30 O1D        75.9977   53.8729   35.9508 o2         1 CLA     -0.558200
     31 C2         79.4240   53.6591   35.8830 c8         1 CLA     -0.325100
     32 C2A        77.3137   57.1612   36.9091 a1         1 CLA      0.098600
     33 C2B        77.9657   60.8114   42.1155 cb         1 CLA      0.088500
     34 C2C        72.4812   58.9820   44.0669 cb         1 CLA      0.053700
     35 C2D        71.4161   56.3712   38.6281 cb         1 CLA      0.058900
     36 O2A        79.5710   55.9260   35.1970 o1         1 CLA     -0.437200
     37 O2D        74.8493   53.9177   37.8901 o1         1 CLA     -0.357600
     38 C3         80.1859   52.8204   36.6231 c5         1 CLA      0.031200
     39 C3A        78.3060   57.9319   37.9322 a1         1 CLA      0.166800
     40 C3B        77.0593   60.8882   43.1331 cb         1 CLA      0.035000
     41 C3C        71.4582   58.3728   43.3274 cb         1 CLA     -0.089900
     42 C3D        72.4960   56.1680   37.7089 cb         1 CLA     -0.035900
     43 C4         80.5083   51.4322   35.9999 a3         1 CLA     -0.053300
     44 C4A        77.4077   58.5930   38.8579 ac         1 CLA      0.001800
     45 C4B        75.8695   60.2579   42.6831 cn         1 CLA     -0.020900
     46 C4C        72.0065   58.2337   42.0395 cr         1 CLA     -0.044400
     47 C4D        73.6358   56.9287   38.1897 c6         1 CLA     -0.046000
     48 C5         80.7122   53.2897   37.9434 a2         1 CLA     -0.070400
     49 C6         81.9767   54.1134   37.8918 a2         1 CLA      0.043900
     50 C7         82.2186   54.8983   39.1562 a2         1 CLA     -0.150000
     51 C8         83.5220   55.8290   39.2174 a1         1 CLA      0.064200
     52 C9         84.7461   55.1515   38.6047 a3         1 CLA     -0.259300
     53 C10        83.9729   56.3300   40.6827 a2         1 CLA     -0.071900
     54 C11        82.7649   56.9014   41.4095 a2         1 CLA      0.014500
     55 C12        83.1672   57.5623   42.7694 a2         1 CLA     -0.112100
     56 C13        83.5965   56.7980   44.0282 a1         1 CLA      0.089200
     57 C14        82.4410   55.9961   44.5976 a3         1 CLA     -0.239100
     58 C15        84.0832   57.7538   45.1504 a2         1 CLA     -0.102200
     59 C16        83.1673   58.8939   45.5231 a2         1 CLA      0.023900
     60 C17        83.8334   59.7642   46.5740 a2         1 CLA     -0.105700
     61 C18        83.1715   61.2000   46.7853 a1         1 CLA      0.206800
     62 C19        81.8295   61.2021   47.3363 a3         1 CLA     -0.280100
     63 C20        84.0757   62.1488   47.5680 a3         1 CLA     -0.280100
     64 NC         73.2920   58.7923   41.9435 nx         1 CLA     -0.309200
     65 MG         74.7027   58.6573   40.2389 mg         1 CLA      0.895000
     66 HMD3       69.8136   55.1538   39.3232 dc         1 CLA      0.064300
     67 HMD2       69.3615   56.9031   38.6486 dc         1 CLA      0.064300
     68 HMD1       69.8983   55.5614   37.5662 dc         1 CLA      0.064300
     69 HMC3       73.2973   59.9828   45.9277 dc         1 CLA      0.052100
     70 HMC2       71.5587   60.2611   45.6055 dc         1 CLA      0.052100
     71 HMC1       72.0151   58.7054   46.1195 dc         1 CLA      0.052100
     72 HMB3       79.3331   62.4438   42.2756 dc         1 CLA      0.063600
     73 HMB2       80.0237   60.8270   42.6473 dc         1 CLA      0.063600
     74 HMB1       79.6332   61.3182   40.9604 dc         1 CLA      0.063600
     75 HMA3       80.0505   56.7411   37.7005 dc         1 CLA      0.058300
     76 HMA2       80.0168   57.5537   39.1883 dc         1 CLA      0.058300
     77 HMA1       78.8670   56.2294   39.0339 dc         1 CLA      0.058300
     78 HED3       75.5557   51.8821   37.7962 dc         1 CLA      0.079300
     79 HED2       76.7827   53.0897   38.2266 dc         1 CLA      0.079300
     80 HED1       75.4164   52.7525   39.3740 dc         1 CLA      0.079300
     81 HBC3       70.6620   55.9747   43.7668 dc         1 CLA      0.016300
     82 HBC2       68.9326   56.2502   44.3110 dc         1 CLA      0.016300
     83 HBC1       69.4256   56.3098   42.5763 dc         1 CLA      0.016300
     84 HBB2       78.4629   62.1069   46.1247 da         1 CLA      0.183000
     85 HBB1       79.4308   61.2175   44.7837 da         1 CLA      0.183000
     86 HBA2       78.2800   58.6002   33.7732 dc         1 CLA      0.029400
     87 HBA1       79.1248   58.6282   35.3575 dc         1 CLA      0.029400
     88 HAC2       69.9495   58.2806   44.8275 dc         1 CLA      0.029300
     89 HAC1       69.2440   58.6826   43.3209 dc         1 CLA      0.029300
     90 HAA2       76.5358   57.3463   34.8472 dc         1 CLA      0.028700
     91 HAA1       76.6949   58.8097   35.6685 dc         1 CLA      0.028700
     92 H203       83.6256   63.0507   48.0816 dc         1 CLA      0.065600
     93 H202       84.6057   61.5915   48.3146 dc         1 CLA      0.065600
     94 H201       84.8501   62.4599   46.8950 dc         1 CLA      0.065600
     95 H193       81.8786   60.7523   48.3548 dc         1 CLA      0.065600
     96 H192       81.4481   62.2108   47.3545 dc         1 CLA      0.065600
     97 H191       81.1732   60.5313   46.7662 dc         1 CLA      0.065600
     98 H172       83.6440   59.1955   47.4866 dc         1 CLA      0.027600
     99 H171       84.9131   59.8836   46.4084 dc         1 CLA      0.027600
    100 H162       83.0706   59.4797   44.6572 dc         1 CLA      0.002900
    101 H161       82.2059   58.5743   46.0454 dc         1 CLA      0.002900
    102 H152       84.1479   57.2206   46.0778 dc         1 CLA      0.029100
    103 H151       85.0355   58.1883   44.8715 dc         1 CLA      0.029100
    104 H143       81.5890   56.6543   44.8046 dc         1 CLA      0.063600
    105 H142       82.0349   55.3767   43.8272 dc         1 CLA      0.063600
    106 H141       82.7216   55.2566   45.4046 dc         1 CLA      0.063600
    107 H122       84.0327   58.1930   42.5526 dc         1 CLA      0.032500
    108 H121       82.2936   58.2031   43.1559 dc         1 CLA      0.032500
    109 H112       82.2903   57.6340   40.7187 dc         1 CLA      0.006600
    110 H111       81.9043   56.2650   41.6108 dc         1 CLA      0.006600
    111 H102       84.3906   55.5175   41.2431 dc         1 CLA      0.024100
    112 H101       84.8114   56.9681   40.5785 dc         1 CLA      0.024100
    113 HHD        70.3570   57.2319   40.9982 da         1 CLA      0.174300
    114 HHC        74.8904   60.4792   44.4944 da         1 CLA      0.136800
    115 HHB        79.0624   59.5899   39.7925 da         1 CLA      0.138300
    116 HBD        74.7494   56.0377   35.3226 dc         1 CLA      0.107700
    117 HAB        76.3531   61.8317   45.0104 da         1 CLA      0.155200
    118 H93        85.0266   54.1990   39.1458 dc         1 CLA      0.069500
    119 H92        84.6899   55.0091   37.5476 dc         1 CLA      0.069500
    120 H91        85.6741   55.7600   38.7358 dc         1 CLA      0.069500
    121 H8         83.3079   56.7372   38.5648 dc         1 CLA      0.029300
    122 H72        81.3130   55.4340   39.4926 dc         1 CLA      0.044400
    123 H71        82.3680   54.1568   39.9160 dc         1 CLA      0.044400
    124 H62        82.7901   53.4223   37.7148 dc         1 CLA      0.015600
    125 H61        82.0181   54.6183   36.9558 dc         1 CLA      0.015600
    126 H52        79.9226   53.8994   38.3332 dc         1 CLA      0.033200
    127 H51        80.8528   52.4453   38.5850 dc         1 CLA      0.033200
    128 H43        81.4315   51.5065   35.4281 dc         1 CLA      0.037000
    129 H42        80.5933   50.6063   36.7460 dc         1 CLA      0.037000
    130 H41        79.7670   51.1033   35.3129 dc         1 CLA      0.037000
    131 H3A        78.8504   58.7023   37.4108 dc         1 CLA      0.041100
    132 H2A        77.5661   56.1487   36.7471 dc         1 CLA      0.083100
    133 H2         78.3408   53.6550   35.9610 da         1 CLA      0.180900
    134 H18        83.0084   61.5542   45.8284 dc         1 CLA     -0.003900
    135 H13        84.4453   56.1320   43.6823 dc         1 CLA      0.019700
    136 H12        79.6936   54.2675   33.8570 dc         1 CLA      0.120400
    137 H11        81.1818   54.7062   34.7895 dc         1 CLA      0.120400
    138 C1         66.7868   61.4705   51.0608 Z1         2 LUT      0.509236
    139 C2         65.4082   61.5401   51.7747 Z2         2 LUT     -0.434695
    140 C3         64.6908   62.8458   51.9203 Z3         2 LUT      0.437453
    141 O3         65.0008   63.3978   53.1597 S1         2 LUT     -0.547129
    142 C4         65.2366   63.8275   50.9431 Z4         2 LUT     -0.468603
    143 C5         65.9373   63.3729   49.7254 Z5         2 LUT      0.279246
    144 C6         66.7026   62.3016   49.7506 Z6         2 LUT     -0.305473
    145 C7         67.1447   61.6624   48.4859 Z7         2 LUT      0.069402
    146 C8         67.8940   62.3173   47.5965 Z8         2 LUT     -0.191631
    147 C9         68.3576   61.8750   46.2579 Z9         2 LUT      0.196698
    148 C10        69.4317   62.4276   45.6622 Y1         2 LUT     -0.208611
    149 C11        70.1221   62.2135   44.3672 Y2         2 LUT      0.030784
    150 C12        71.2268   62.9072   44.0055 Y3         2 LUT     -0.220316
    151 C13        71.9728   62.7545   42.7340 Y4         2 LUT      0.215937
    152 C14        73.2580   63.2125   42.8121 Y5         2 LUT     -0.185793
    153 C15        74.2538   63.1410   41.7927 Y6         2 LUT     -0.057835
    154 C16        67.2513   60.0447   50.9701 Y7         2 LUT     -0.405615
    155 C17        67.6820   62.1968   52.1062 Y7         2 LUT     -0.405615
    156 C18        65.5103   64.2384   48.4986 Y9         2 LUT     -0.369639
    157 C19        67.5786   60.8037   45.6067 W1         2 LUT     -0.333362
    158 C20        71.5366   62.0397   41.4626 W2         2 LUT     -0.323439
    159 C21        85.8636   64.5419   36.1071 Z1         2 LUT      0.406104
    160 C22        86.7286   64.0576   34.8695 Z2         2 LUT     -0.404965
    161 C23        86.8920   65.1138   33.8005 Z3         2 LUT      0.391255
    162 O23        87.5492   64.4815   32.7305 S1         2 LUT     -0.528210
    163 C24        85.5688   65.8773   33.4850 W6         2 LUT     -0.258361
    164 C25        84.4594   65.6790   34.2821 Z5         2 LUT      0.133546
    165 C26        84.3794   64.8333   35.5628 W8         2 LUT     -0.147008
    166 C27        83.4886   65.5115   36.6261 Z7         2 LUT      0.023843
    167 C28        82.3132   65.0679   37.1966 Z8         2 LUT     -0.216987
    168 C29        81.5657   65.7495   38.2886 Z9         2 LUT      0.206524
    169 C30        80.5716   65.0314   38.8288 Y1         2 LUT     -0.215556
    170 C31        79.6920   65.2627   39.9520 Y2         2 LUT      0.025142
    171 C32        78.5859   64.5756   40.1980 Y3         2 LUT     -0.212209
    172 C33        77.5490   64.6671   41.2319 Y4         2 LUT      0.240937
    173 C34        76.4934   63.8812   41.1560 Y5         2 LUT     -0.218862
    174 C35        75.3935   63.8666   42.0587 Y6         2 LUT     -0.023547
    175 C36        86.5504   65.7265   36.7468 Y7         2 LUT     -0.393485
    176 C37        85.9099   63.3980   37.0965 Y7         2 LUT     -0.393485
    177 C38        83.0570   66.2585   33.8734 Y9         2 LUT     -0.387526
    178 C39        81.9142   67.0374   38.9042 W1         2 LUT     -0.322618
    179 C40        78.0093   65.3990   42.5320 W2         2 LUT     -0.358472
    180 H403       78.9957   65.0499   42.7286 R7         2 LUT      0.097720
    181 H402       77.9181   66.4787   42.3750 R7         2 LUT      0.097720
    182 H401       77.3192   65.1544   43.3630 R7         2 LUT      0.097720
    183 H393       82.7332   66.8307   39.5152 R4         2 LUT      0.082505
    184 H392       82.2133   67.7917   38.1373 R4         2 LUT      0.082505
    185 H391       81.0946   67.5239   39.4560 R4         2 LUT      0.082505
    186 H383       82.5872   66.9170   34.6723 R1         2 LUT      0.104030
    187 H382       83.0637   66.9357   33.0052 R1         2 LUT      0.104030
    188 H381       82.3659   65.4708   33.5919 R1         2 LUT      0.104030
    189 H373       85.1869   63.5911   37.8604 T4         2 LUT      0.089537
    190 H372       85.5509   62.4462   36.6883 T4         2 LUT      0.089537
    191 H371       86.8972   63.2556   37.6248 T4         2 LUT      0.089537
    192 H363       86.3318   66.6768   36.2226 T4         2 LUT      0.089537
    193 H362       86.2642   65.8789   37.8122 T4         2 LUT      0.089537
    194 H361       87.6471   65.6657   36.8089 T4         2 LUT      0.089537
    195 H222       87.7950   63.7401   35.1023 U2         2 LUT      0.127376
    196 H221       86.1855   63.1590   34.4021 U2         2 LUT      0.127376
    197 H203       72.3462   61.7789   40.8119 R7         2 LUT      0.087068
    198 H202       71.0314   61.0993   41.6949 R7         2 LUT      0.087068
    199 H201       70.8531   62.5428   40.8815 R7         2 LUT      0.087068
    200 H193       67.9228   59.8243   46.0408 R4         2 LUT      0.089716
    201 H192       66.5000   60.7556   45.7725 R4         2 LUT      0.089716
    202 H191       67.6657   60.9773   44.5278 R4         2 LUT      0.089716
    203 H183       64.3859   64.4553   48.5295 R1         2 LUT      0.094572
    204 H182       66.0344   65.1845   48.4253 R1         2 LUT      0.094572
    205 H181       65.6705   63.6918   47.5349 R1         2 LUT      0.094572
    206 H173       67.4287   61.9674   53.1196 T4         2 LUT      0.093752
    207 H172       68.6982   61.8408   52.0917 T4         2 LUT      0.093752
    208 H171       67.5716   63.2736   51.9485 T4         2 LUT      0.093752
    209 H163       67.2137   59.6594   52.0098 T4         2 LUT      0.093752
    210 H162       66.6237   59.4447   50.3773 T4         2 LUT      0.093752
    211 H161       68.2578   59.7879   50.5786 T4         2 LUT      0.093752
    212 HO3        64.7828   62.8383   53.9113 Q1         2 LUT      0.300121
    213 H8         68.2496   63.3204   47.8347 U7         2 LUT      0.080784
    214 H7         66.9097   60.6894   48.3873 U6         2 LUT      0.042190
    215 H42        64.3391   64.3870   50.6358 U5         2 LUT      0.145166
    216 H41        65.9272   64.6572   51.3234 U5         2 LUT      0.145166
    217 H35        75.4217   64.3622   43.0184 T3         2 LUT      0.077919
    218 H34        76.4366   63.1922   40.3278 T2         2 LUT      0.073626
    219 H32        78.2525   63.8364   39.4988 T1         2 LUT      0.092510
    220 H31        80.0135   66.0616   40.5910 U9         2 LUT      0.070048
    221 H30        80.4437   64.0834   38.2759 U8         2 LUT      0.085442
    222 H3         63.6263   62.7151   51.8530 U3         2 LUT     -0.031596
    223 H28        81.8099   64.2624   36.6961 U7         2 LUT      0.084728
    224 H27        83.8362   66.4930   37.0833 U6         2 LUT      0.087291
    225 H26        83.8195   63.9223   35.3199 Q6         2 LUT      0.075325
    226 H24        85.4081   66.4087   32.5311 Q5         2 LUT      0.094482
    227 H23        87.7410   65.6269   34.2902 U3         2 LUT     -0.024869
    228 H22        64.7570   61.0036   51.1134 U2         2 LUT      0.127376
    229 H21        65.5077   60.9638   52.6986 U2         2 LUT      0.127376
    230 H15        74.2190   62.6545   40.8391 T3         2 LUT      0.093200
    231 H14        73.5897   63.6931   43.7470 T2         2 LUT      0.068865
    232 H12        71.5324   63.6251   44.7932 T1         2 LUT      0.095507
    233 H11        69.7226   61.5859   43.6402 U9         2 LUT      0.068930
    234 H10        69.8698   63.2544   46.3126 U8         2 LUT      0.083911
    235 H1         86.9775   64.0719   32.1026 Q1         2 LUT      0.297311
@<TRIPOS>BOND
    1     6     1 1
    2     7     2 1
    3     8     3 1
    4     9     4 1
    5    11     4 1
    6    12     6 1
    7    13     9 1
    8    16     9 1
    9    25     5 1
   10    25    16 1
   11    26    10 1
   12    26    17 1
   13    27    18 1
   14    28    14 1
   15    28    19 1
   16    29    12 1
   17    30    13 1
   18    31    24 1
   19    32     1 1
   20    32    25 1
   21    33    21 1
   22    33    26 1
   23    34    22 1
   24    34    27 1
   25    35    23 1
   26    35    28 1
   27    36    12 1
   28    36    24 1
   29    37    13 1
   30    37    15 1
   31    38    31 1
   32    39    20 1
   33    39    32 1
   34    40     2 1
   35    40    33 1
   36    41     3 1
   37    41    34 1
   38    42     4 1
   39    42    35 1
   40    43    38 1
   41    44     5 1
   42    44    17 1
   43    44    39 1
   44    45    10 1
   45    45    18 1
   46    45    40 1
   47    46    19 1
   48    46    41 1
   49    47    14 1
   50    47    16 1
   51    47    42 1
   52    48    38 1
   53    49    48 1
   54    50    49 1
   55    51    50 1
   56    52    51 1
   57    53    51 1
   58    54    53 1
   59    55    54 1
   60    56    55 1
   61    57    56 1
   62    58    56 1
   63    59    58 1
   64    60    59 1
   65    61    60 1
   66    62    61 1
   67    63    61 1
   68    64    27 1
   69    64    46 1
   70    65     5 1
   71    65    10 1
   72    65    64 1
   73    65    14 1
   74    66    23 1
   75    67    23 1
   76    68    23 1
   77    69    22 1
   78    70    22 1
   79    71    22 1
   80    72    21 1
   81    73    21 1
   82    74    21 1
   83    75    20 1
   84    76    20 1
   85    77    20 1
   86    78    15 1
   87    79    15 1
   88    80    15 1
   89    81     8 1
   90    82     8 1
   91    83     8 1
   92    84     7 1
   93    85     7 1
   94    86     6 1
   95    87     6 1
   96    88     3 1
   97    89     3 1
   98    90     1 1
   99    91     1 1
  100    92    63 1
  101    93    63 1
  102    94    63 1
  103    95    62 1
  104    96    62 1
  105    97    62 1
  106    98    60 1
  107    99    60 1
  108   100    59 1
  109   101    59 1
  110   102    58 1
  111   103    58 1
  112   104    57 1
  113   105    57 1
  114   106    57 1
  115   107    55 1
  116   108    55 1
  117   109    54 1
  118   110    54 1
  119   111    53 1
  120   112    53 1
  121   113    19 1
  122   114    18 1
  123   115    17 1
  124   116     9 1
  125   117     2 1
  126   118    52 1
  127   119    52 1
  128   120    52 1
  129   121    51 1
  130   122    50 1
  131   123    50 1
  132   124    49 1
  133   125    49 1
  134   126    48 1
  135   127    48 1
  136   128    43 1
  137   129    43 1
  138   130    43 1
  139   131    39 1
  140   132    32 1
  141   133    31 1
  142   134    61 1
  143   135    56 1
  144   136    24 1
  145   137    24 1
  146   139   138 1
  147   140   139 1
  148   141   140 1
  149   142   140 1
  150   143   142 1
  151   144   138 1
  152   144   143 1
  153   145   144 1
  154   146   145 1
  155   147   146 1
  156   148   147 1
  157   149   148 1
  158   150   149 1
  159   151   150 1
  160   152   151 1
  161   153   152 1
  162   154   138 1
  163   155   138 1
  164   156   143 1
  165   157   147 1
  166   158   151 1
  167   160   159 1
  168   161   160 1
  169   162   161 1
  170   163   161 1
  171   164   163 1
  172   165   159 1
  173   165   164 1
  174   166   165 1
  175   167   166 1
  176   168   167 1
  177   169   168 1
  178   170   169 1
  179   171   170 1
  180   172   171 1
  181   173   172 1
  182   174   153 1
  183   174   173 1
  184   175   159 1
  185   176   159 1
  186   177   164 1
  187   178   168 1
  188   179   172 1
  189   180   179 1
  190   181   179 1
  191   182   179 1
  192   183   178 1
  193   184   178 1
  194   185   178 1
  195   186   177 1
  196   187   177 1
  197   188   177 1
  198   189   176 1
  199   190   176 1
  200   191   176 1
  201   192   175 1
  202   193   175 1
  203   194   175 1
  204   195   160 1
  205   196   160 1
  206   197   158 1
  207   198   158 1
  208   199   158 1
  209   200   157 1
  210   201   157 1
  211   202   157 1
  212   203   156 1
  213   204   156 1
  214   205   156 1
  215   206   155 1
  216   207   155 1
  217   208   155 1
  218   209   154 1
  219   210   154 1
  220   211   154 1
  221   212   141 1
  222   213   146 1
  223   214   145 1
  224   215   142 1
  225   216   142 1
  226   217   174 1
  227   218   173 1
  228   219   171 1
  229   220   170 1
  230   221   169 1
  231   222   140 1
  232   223   167 1
  233   224   166 1
  234   225   165 1
  235   226   163 1
  236   227   161 1
  237   228   139 1
  238   229   139 1
  239   230   153 1
  240   231   152 1
  241   232   150 1
  242   233   149 1
  243   234   148 1
  244   235   162 1
  245   65    153 1
  246   65    174 1
@<TRIPOS>SUBSTRUCTURE
      1 CLA               1 ****               0 ****  **** 
      2 LUT             138 ****               0 ****  **** 
