@<TRIPOS>MOLECULE
Cpptraj generated mol2 file.
  235   246     2     0     0
SMALL
USER_CHARGES


@<TRIPOS>ATOM
      1 CAA        79.4736   57.2463   34.7717 a2         1 CLA     -0.055900
      2 CAB        79.5729   61.6916   43.4100 c8         1 CLA     -0.148500
      3 CAC        72.5408   57.7866   43.5469 a2         1 CLA     -0.012600
      4 CAD        74.9214   55.1270   36.1880 ck         1 CLA      0.398800
      5 NA         78.2896   57.9397   38.1775 ns         1 CLA     -0.225500
      6 CBA        80.6209   56.6726   33.9244 a2         1 CLA     -0.135000
      7 CBB        80.6605   61.6878   44.2625 c0         1 CLA     -0.395200
      8 CBC        72.7013   56.2624   43.7331 a3         1 CLA     -0.037700
      9 CBD        76.3632   55.5070   35.8553 a1         1 CLA     -0.053900
     10 NB         78.3327   59.5208   40.6602 nm         1 CLA     -0.295700
     11 OBD        74.2734   54.3334   35.5466 o2         1 CLA     -0.494600
     12 CGA        80.7016   55.1042   33.8088 c4         1 CLA      0.827000
     13 CGD        77.2150   54.2902   35.8639 c4         1 CLA      0.655300
     14 ND         75.4215   57.2834   38.9211 nm         1 CLA     -0.291600
     15 CED        77.9290   52.3915   37.1776 a3         1 CLA      0.005400
     16 CHA        76.8273   56.4386   36.9301 cs         1 CLA     -0.123800
     17 CHB        80.1800   59.1790   39.1444 aa         1 CLA     -0.291900
     18 CHC        77.0082   60.0592   42.6549 aa         1 CLA     -0.090400
     19 CHD        73.5487   57.3629   40.5716 aa         1 CLA     -0.052000
     20 CMA        81.5921   56.8697   37.6795 a3         1 CLA     -0.230700
     21 CMB        81.9007   60.9421   41.0361 a3         1 CLA     -0.180800
     22 CMC        74.8776   59.5374   44.9761 a3         1 CLA     -0.134000
     23 CMD        72.1147   55.5957   38.0897 a3         1 CLA     -0.141100
     24 C1         81.7634   53.2162   34.6755 a2         1 CLA      0.023000
     25 C1A        78.0658   57.0779   37.1110 ac         1 CLA     -0.015100
     26 C1B        79.6330   59.7436   40.2612 cr         1 CLA      0.054700
     27 C1C        75.8275   59.3886   42.4863 cn         1 CLA     -0.005600
     28 C1D        74.0990   56.8230   39.3343 ap         1 CLA     -0.047300
     29 O1A        80.3104   54.4534   32.8864 o2         1 CLA     -0.610800
     30 O1D        77.9545   53.9692   34.9182 o2         1 CLA     -0.558200
     31 C2         82.6522   52.8369   35.7478 c8         1 CLA     -0.325100
     32 C2A        79.3615   56.9352   36.3380 a1         1 CLA      0.098600
     33 C2B        80.4330   60.5430   41.1902 cb         1 CLA      0.088500
     34 C2C        74.7721   59.1407   43.5521 cb         1 CLA      0.053700
     35 C2D        73.5162   56.1260   38.2755 cb         1 CLA      0.058900
     36 O2A        81.5041   54.6424   34.8421 o1         1 CLA     -0.437200
     37 O2D        77.0779   53.6380   37.0974 o1         1 CLA     -0.357600
     38 C3         83.9573   52.5147   35.6295 c5         1 CLA      0.031200
     39 C3A        80.4098   57.7106   37.1084 a1         1 CLA      0.166800
     40 C3B        79.5259   60.8272   42.2175 cb         1 CLA      0.035000
     41 C3C        73.6855   58.4830   42.8759 cb         1 CLA     -0.089900
     42 C3D        74.5600   55.8481   37.3422 cb         1 CLA     -0.035900
     43 C4         84.4258   51.2274   35.2993 a3         1 CLA     -0.053300
     44 C4A        79.6261   58.3697   38.2196 ac         1 CLA      0.001800
     45 C4B        78.2053   60.1971   41.8426 cn         1 CLA     -0.020900
     46 C4C        74.2353   58.1597   41.5723 cr         1 CLA     -0.044400
     47 C4D        75.7225   56.6063   37.7730 c6         1 CLA     -0.046000
     48 C5         85.0926   53.5515   35.7366 a2         1 CLA     -0.070400
     49 C6         85.2673   53.8988   37.2360 a2         1 CLA      0.043900
     50 C7         86.2654   55.0118   37.5637 a2         1 CLA     -0.150000
     51 C8         86.2681   55.5310   38.9658 a1         1 CLA      0.064200
     52 C9         85.1774   56.6755   39.2166 a3         1 CLA     -0.259300
     53 C10        87.6645   55.9141   39.4928 a2         1 CLA     -0.071900
     54 C11        87.8057   56.4179   40.9288 a2         1 CLA      0.014500
     55 C12        87.3726   55.3827   41.9469 a2         1 CLA     -0.112100
     56 C13        87.8038   55.5805   43.3787 a1         1 CLA      0.089200
     57 C14        87.5687   54.4121   44.3093 a3         1 CLA     -0.239100
     58 C15        87.3603   56.8875   44.0010 a2         1 CLA     -0.102200
     59 C16        85.8623   56.9916   44.3633 a2         1 CLA      0.023900
     60 C17        85.4824   58.4123   44.8995 a2         1 CLA     -0.105700
     61 C18        84.1205   58.3671   45.6723 a1         1 CLA      0.206800
     62 C19        84.1411   57.6749   47.0362 a3         1 CLA     -0.280100
     63 C20        83.3362   59.7323   45.7727 a3         1 CLA     -0.280100
     64 NC         75.5110   58.7254   41.4025 nx         1 CLA     -0.309200
     65 MG         76.8769   58.4601   39.7179 mg         1 CLA      0.895000
     66 HMD3       72.2691   54.6156   37.6802 dc         1 CLA      0.064300
     67 HMD2       71.6253   55.5393   39.0093 dc         1 CLA      0.064300
     68 HMD1       71.4974   56.1485   37.3646 dc         1 CLA      0.064300
     69 HMC3       75.7592   60.1567   45.1084 dc         1 CLA      0.052100
     70 HMC2       73.9857   60.0082   45.4357 dc         1 CLA      0.052100
     71 HMC1       75.0077   58.7372   45.7600 dc         1 CLA      0.052100
     72 HMB3       82.1162   61.7579   41.6873 dc         1 CLA      0.063600
     73 HMB2       82.5801   60.1127   41.3631 dc         1 CLA      0.063600
     74 HMB1       82.1775   61.3327   40.1112 dc         1 CLA      0.063600
     75 HMA3       82.2910   57.5759   38.1114 dc         1 CLA      0.058300
     76 HMA2       81.2308   56.1723   38.4474 dc         1 CLA      0.058300
     77 HMA1       82.1102   56.4380   36.8359 dc         1 CLA      0.058300
     78 HED3       77.6312   51.6193   36.5015 dc         1 CLA      0.079300
     79 HED2       78.9814   52.5387   36.9229 dc         1 CLA      0.079300
     80 HED1       77.8501   52.0126   38.2014 dc         1 CLA      0.079300
     81 HBC3       73.1381   55.7030   42.8886 dc         1 CLA      0.016300
     82 HBC2       73.3942   56.1773   44.5776 dc         1 CLA      0.016300
     83 HBC1       71.6713   55.7929   43.9012 dc         1 CLA      0.016300
     84 HBB2       80.7441   62.3897   45.1088 da         1 CLA      0.183000
     85 HBB1       81.5422   61.1448   43.9974 da         1 CLA      0.183000
     86 HBA2       80.6157   57.1377   32.8923 dc         1 CLA      0.029400
     87 HBA1       81.6493   56.8229   34.4057 dc         1 CLA      0.029400
     88 HAC2       72.4041   58.1132   44.5683 dc         1 CLA      0.029300
     89 HAC1       71.6539   57.9327   42.9095 dc         1 CLA      0.029300
     90 HAA2       78.4439   56.9456   34.4080 dc         1 CLA      0.028700
     91 HAA1       79.5105   58.3386   34.6549 dc         1 CLA      0.028700
     92 H203       83.6623   60.2839   46.6527 dc         1 CLA      0.065600
     93 H202       83.4520   60.2829   44.8672 dc         1 CLA      0.065600
     94 H201       82.3324   59.4445   45.9740 dc         1 CLA      0.065600
     95 H193       84.6500   58.2658   47.7765 dc         1 CLA      0.065600
     96 H192       83.1106   57.6929   47.3020 dc         1 CLA      0.065600
     97 H191       84.5288   56.7345   47.0520 dc         1 CLA      0.065600
     98 H172       86.2559   58.7401   45.5348 dc         1 CLA      0.027600
     99 H171       85.3915   58.9629   43.9959 dc         1 CLA      0.027600
    100 H162       85.3728   56.8853   43.3981 dc         1 CLA      0.002900
    101 H161       85.5771   56.1276   45.0101 dc         1 CLA      0.002900
    102 H152       87.9025   56.9990   44.9557 dc         1 CLA      0.029100
    103 H151       87.5607   57.6306   43.2985 dc         1 CLA      0.029100
    104 H143       86.5124   54.1156   44.4592 dc         1 CLA      0.063600
    105 H142       88.1564   53.5257   43.9474 dc         1 CLA      0.063600
    106 H141       87.9722   54.5985   45.3372 dc         1 CLA      0.063600
    107 H122       86.2989   55.1987   41.9315 dc         1 CLA      0.032500
    108 H121       87.8245   54.3794   41.6483 dc         1 CLA      0.032500
    109 H112       88.8864   56.6093   41.1113 dc         1 CLA      0.006600
    110 H111       87.2325   57.3397   41.1044 dc         1 CLA      0.006600
    111 H102       88.2054   54.9490   39.4704 dc         1 CLA      0.024100
    112 H101       88.2629   56.5387   38.8085 dc         1 CLA      0.024100
    113 HHD        72.5030   57.2308   40.6838 da         1 CLA      0.174300
    114 HHC        77.2968   60.5121   43.6201 da         1 CLA      0.136800
    115 HHB        81.1781   59.5875   38.9397 da         1 CLA      0.138300
    116 HBD        76.3350   55.9448   34.9336 dc         1 CLA      0.107700
    117 HAB        78.8014   62.4720   43.5795 da         1 CLA      0.155200
    118 H93        85.0451   56.7480   40.3135 dc         1 CLA      0.069500
    119 H92        85.4959   57.6263   38.7773 dc         1 CLA      0.069500
    120 H91        84.1852   56.2997   38.8699 dc         1 CLA      0.069500
    121 H8         86.0538   54.6459   39.5614 dc         1 CLA      0.029300
    122 H72        87.2190   54.5327   37.3696 dc         1 CLA      0.044400
    123 H71        86.1273   55.8909   36.8808 dc         1 CLA      0.044400
    124 H62        84.2898   54.1918   37.7053 dc         1 CLA      0.015600
    125 H61        85.5401   53.0242   37.8670 dc         1 CLA      0.015600
    126 H52        86.0753   53.2118   35.4535 dc         1 CLA      0.033200
    127 H51        84.7964   54.4520   35.1538 dc         1 CLA      0.033200
    128 H43        85.3685   51.0383   35.7486 dc         1 CLA      0.037000
    129 H42        83.7606   50.5674   35.7514 dc         1 CLA      0.037000
    130 H41        84.3722   51.1747   34.2151 dc         1 CLA      0.037000
    131 H3A        80.9028   58.4686   36.4555 dc         1 CLA      0.041100
    132 H2A        79.6547   55.9109   36.3556 dc         1 CLA      0.083100
    133 H2         82.1669   52.6129   36.7001 da         1 CLA      0.180900
    134 H18        83.3866   57.7551   45.1697 dc         1 CLA     -0.003900
    135 H13        88.8702   55.6026   43.2405 dc         1 CLA      0.019700
    136 H12        80.8224   52.7152   34.9539 dc         1 CLA      0.120400
    137 H11        82.1305   52.9972   33.7098 dc         1 CLA      0.120400
    138 C1         69.3558   61.3010   50.2949 Z1         2 LUT      0.509236
    139 C2         68.0218   61.2543   50.9674 Z2         2 LUT     -0.434695
    140 C3         67.3983   62.6452   51.3313 Z3         2 LUT      0.437453
    141 O3         67.8575   63.2701   52.5346 S1         2 LUT     -0.547129
    142 C4         67.5711   63.5832   50.1932 Z4         2 LUT     -0.468603
    143 C5         68.5481   63.3406   49.1008 Z5         2 LUT      0.279246
    144 C6         69.3633   62.2889   49.1289 Z6         2 LUT     -0.305473
    145 C7         69.9840   61.7681   47.8598 Z7         2 LUT      0.069402
    146 C8         70.8792   62.4823   47.1365 Z8         2 LUT     -0.191631
    147 C9         71.5476   62.0913   45.8956 Z9         2 LUT      0.196698
    148 C10        72.5564   62.9875   45.4097 Y1         2 LUT     -0.208611
    149 C11        73.3791   62.7275   44.1966 Y2         2 LUT      0.030784
    150 C12        74.6080   63.2583   43.9304 Y3         2 LUT     -0.220316
    151 C13        75.4112   63.2276   42.7707 Y4         2 LUT      0.215937
    152 C14        76.5779   63.9358   42.7671 Y5         2 LUT     -0.185793
    153 C15        77.5969   63.8295   41.8038 Y6         2 LUT     -0.057835
    154 C16        70.0276   59.9102   50.0209 Y7         2 LUT     -0.405615
    155 C17        70.3639   61.8365   51.3177 Y7         2 LUT     -0.405615
    156 C18        68.0625   64.1939   47.9810 Y9         2 LUT     -0.369639
    157 C19        71.1372   60.8593   45.1234 W1         2 LUT     -0.333362
    158 C20        74.7574   62.8536   41.4543 W2         2 LUT     -0.323439
    159 C21        88.7255   64.2623   35.2024 Z1         2 LUT      0.406104
    160 C22        89.1469   63.5078   33.8864 Z2         2 LUT     -0.404965
    161 C23        89.3113   64.2910   32.6112 Z3         2 LUT      0.391255
    162 O23        89.5579   63.2541   31.6022 S1         2 LUT     -0.528210
    163 C24        88.2105   65.3451   32.5112 W6         2 LUT     -0.258361
    164 C25        87.1775   65.5353   33.3750 Z5         2 LUT      0.133546
    165 C26        87.2803   64.8514   34.7821 W8         2 LUT     -0.147008
    166 C27        86.6102   65.6853   35.8556 Z7         2 LUT      0.023843
    167 C28        85.4290   65.4610   36.3774 Z8         2 LUT     -0.216987
    168 C29        84.8651   66.1054   37.4890 Z9         2 LUT      0.206524
    169 C30        83.8255   65.3818   38.1207 Y1         2 LUT     -0.215556
    170 C31        83.1578   65.6969   39.3985 Y2         2 LUT      0.025142
    171 C32        81.9012   65.0815   39.7867 Y3         2 LUT     -0.212209
    172 C33        80.9993   65.3611   40.8888 Y4         2 LUT      0.240937
    173 C34        79.9066   64.5451   41.0513 Y5         2 LUT     -0.218862
    174 C35        78.7728   64.5515   42.0082 Y6         2 LUT     -0.023547
    175 C36        89.7834   65.4401   35.5238 Y7         2 LUT     -0.393485
    176 C37        88.7205   63.3057   36.4204 Y7         2 LUT     -0.393485
    177 C38        86.0174   66.4341   32.9254 Y9         2 LUT     -0.387526
    178 C39        85.5145   67.3738   38.1862 W1         2 LUT     -0.322618
    179 C40        81.3698   66.4571   41.8759 W2         2 LUT     -0.358472
    180 H403       80.7694   66.2715   42.7852 R7         2 LUT      0.097720
    181 H402       82.4503   66.4319   42.1388 R7         2 LUT      0.097720
    182 H401       81.0611   67.4614   41.6028 R7         2 LUT      0.097720
    183 H393       86.3956   67.0934   38.7152 R4         2 LUT      0.082505
    184 H392       85.8392   68.1403   37.4933 R4         2 LUT      0.082505
    185 H391       84.9096   67.9273   38.9425 R4         2 LUT      0.082505
    186 H383       85.0475   65.8904   32.8112 R1         2 LUT      0.104030
    187 H382       85.8153   67.1514   33.7575 R1         2 LUT      0.104030
    188 H381       86.2794   67.0007   32.0078 R1         2 LUT      0.104030
    189 H373       89.7070   62.9533   36.7631 T4         2 LUT      0.089537
    190 H372       88.3327   63.8148   37.2834 T4         2 LUT      0.089537
    191 H371       88.0091   62.4357   36.1629 T4         2 LUT      0.089537
    192 H363       89.5576   66.2479   34.7864 T4         2 LUT      0.089537
    193 H362       89.6475   65.9006   36.4596 T4         2 LUT      0.089537
    194 H361       90.8455   65.1288   35.3118 T4         2 LUT      0.089537
    195 H222       90.0861   63.0080   34.1081 U2         2 LUT      0.127376
    196 H221       88.4703   62.6311   33.6776 U2         2 LUT      0.127376
    197 H203       75.3723   63.1528   40.5161 R7         2 LUT      0.087068
    198 H202       74.5216   61.7808   41.3722 R7         2 LUT      0.087068
    199 H201       73.8053   63.3155   41.3797 R7         2 LUT      0.087068
    200 H193       71.1315   60.8084   44.0463 R4         2 LUT      0.089716
    201 H192       71.7181   60.0365   45.4907 R4         2 LUT      0.089716
    202 H191       70.0921   60.6035   45.1399 R4         2 LUT      0.089716
    203 H183       67.0669   64.6611   48.0361 R1         2 LUT      0.094572
    204 H182       68.8119   65.0117   47.8056 R1         2 LUT      0.094572
    205 H181       67.9876   63.6075   47.0261 R1         2 LUT      0.094572
    206 H173       70.2601   62.9433   51.4156 T4         2 LUT      0.093752
    207 H172       70.3326   61.4120   52.3476 T4         2 LUT      0.093752
    208 H171       71.4525   61.7012   51.0314 T4         2 LUT      0.093752
    209 H163       71.0118   60.0183   49.5589 T4         2 LUT      0.093752
    210 H162       69.9666   59.2677   50.9296 T4         2 LUT      0.093752
    211 H161       69.4242   59.3980   49.2962 T4         2 LUT      0.093752
    212 HO3        67.6773   62.7186   53.3150 Q1         2 LUT      0.300121
    213 H8         71.0909   63.5341   47.4908 U7         2 LUT      0.080784
    214 H7         69.6374   60.7784   47.4855 U6         2 LUT      0.042190
    215 H42        66.5252   63.8084   49.9066 U5         2 LUT      0.145166
    216 H41        67.8658   64.5532   50.5851 U5         2 LUT      0.145166
    217 H35        79.0047   65.2947   42.7509 T3         2 LUT      0.077919
    218 H34        79.9458   63.7229   40.3975 T2         2 LUT      0.073626
    219 H32        81.5842   64.2844   39.0935 T1         2 LUT      0.092510
    220 H31        83.6012   66.4923   39.9445 U9         2 LUT      0.070048
    221 H30        83.4669   64.5210   37.6364 U8         2 LUT      0.085442
    222 H3         66.3912   62.4138   51.3843 U3         2 LUT     -0.031596
    223 H28        85.0310   64.5815   35.9211 U7         2 LUT      0.084728
    224 H27        87.1539   66.4459   36.3431 U6         2 LUT      0.087291
    225 H26        86.5364   64.0240   34.6624 Q6         2 LUT      0.075325
    226 H24        88.0234   65.6329   31.4789 Q5         2 LUT      0.094482
    227 H23        90.2580   64.8222   32.7674 U3         2 LUT     -0.024869
    228 H22        67.3754   60.7220   50.2949 U2         2 LUT      0.127376
    229 H21        68.0534   60.6597   51.9163 U2         2 LUT      0.127376
    230 H15        77.5553   63.0929   40.9936 T3         2 LUT      0.093200
    231 H14        76.8403   64.5698   43.6053 T2         2 LUT      0.068865
    232 H12        74.9712   63.9653   44.6607 T1         2 LUT      0.095507
    233 H11        73.0979   61.9978   43.4432 U9         2 LUT      0.068930
    234 H10        72.8914   63.8587   46.0134 U8         2 LUT      0.083911
    235 H1         89.2587   63.5564   30.7018 Q1         2 LUT      0.297311
@<TRIPOS>BOND
    1     6     1 1
    2     7     2 1
    3     8     3 1
    4     9     4 1
    5    11     4 1
    6    12     6 1
    7    13     9 1
    8    16     9 1
    9    25     5 1
   10    25    16 1
   11    26    10 1
   12    26    17 1
   13    27    18 1
   14    28    14 1
   15    28    19 1
   16    29    12 1
   17    30    13 1
   18    31    24 1
   19    32     1 1
   20    32    25 1
   21    33    21 1
   22    33    26 1
   23    34    22 1
   24    34    27 1
   25    35    23 1
   26    35    28 1
   27    36    12 1
   28    36    24 1
   29    37    13 1
   30    37    15 1
   31    38    31 1
   32    39    20 1
   33    39    32 1
   34    40     2 1
   35    40    33 1
   36    41     3 1
   37    41    34 1
   38    42     4 1
   39    42    35 1
   40    43    38 1
   41    44     5 1
   42    44    17 1
   43    44    39 1
   44    45    10 1
   45    45    18 1
   46    45    40 1
   47    46    19 1
   48    46    41 1
   49    47    14 1
   50    47    16 1
   51    47    42 1
   52    48    38 1
   53    49    48 1
   54    50    49 1
   55    51    50 1
   56    52    51 1
   57    53    51 1
   58    54    53 1
   59    55    54 1
   60    56    55 1
   61    57    56 1
   62    58    56 1
   63    59    58 1
   64    60    59 1
   65    61    60 1
   66    62    61 1
   67    63    61 1
   68    64    27 1
   69    64    46 1
   70    65     5 1
   71    65    10 1
   72    65    64 1
   73    65    14 1
   74    66    23 1
   75    67    23 1
   76    68    23 1
   77    69    22 1
   78    70    22 1
   79    71    22 1
   80    72    21 1
   81    73    21 1
   82    74    21 1
   83    75    20 1
   84    76    20 1
   85    77    20 1
   86    78    15 1
   87    79    15 1
   88    80    15 1
   89    81     8 1
   90    82     8 1
   91    83     8 1
   92    84     7 1
   93    85     7 1
   94    86     6 1
   95    87     6 1
   96    88     3 1
   97    89     3 1
   98    90     1 1
   99    91     1 1
  100    92    63 1
  101    93    63 1
  102    94    63 1
  103    95    62 1
  104    96    62 1
  105    97    62 1
  106    98    60 1
  107    99    60 1
  108   100    59 1
  109   101    59 1
  110   102    58 1
  111   103    58 1
  112   104    57 1
  113   105    57 1
  114   106    57 1
  115   107    55 1
  116   108    55 1
  117   109    54 1
  118   110    54 1
  119   111    53 1
  120   112    53 1
  121   113    19 1
  122   114    18 1
  123   115    17 1
  124   116     9 1
  125   117     2 1
  126   118    52 1
  127   119    52 1
  128   120    52 1
  129   121    51 1
  130   122    50 1
  131   123    50 1
  132   124    49 1
  133   125    49 1
  134   126    48 1
  135   127    48 1
  136   128    43 1
  137   129    43 1
  138   130    43 1
  139   131    39 1
  140   132    32 1
  141   133    31 1
  142   134    61 1
  143   135    56 1
  144   136    24 1
  145   137    24 1
  146   139   138 1
  147   140   139 1
  148   141   140 1
  149   142   140 1
  150   143   142 1
  151   144   138 1
  152   144   143 1
  153   145   144 1
  154   146   145 1
  155   147   146 1
  156   148   147 1
  157   149   148 1
  158   150   149 1
  159   151   150 1
  160   152   151 1
  161   153   152 1
  162   154   138 1
  163   155   138 1
  164   156   143 1
  165   157   147 1
  166   158   151 1
  167   160   159 1
  168   161   160 1
  169   162   161 1
  170   163   161 1
  171   164   163 1
  172   165   159 1
  173   165   164 1
  174   166   165 1
  175   167   166 1
  176   168   167 1
  177   169   168 1
  178   170   169 1
  179   171   170 1
  180   172   171 1
  181   173   172 1
  182   174   153 1
  183   174   173 1
  184   175   159 1
  185   176   159 1
  186   177   164 1
  187   178   168 1
  188   179   172 1
  189   180   179 1
  190   181   179 1
  191   182   179 1
  192   183   178 1
  193   184   178 1
  194   185   178 1
  195   186   177 1
  196   187   177 1
  197   188   177 1
  198   189   176 1
  199   190   176 1
  200   191   176 1
  201   192   175 1
  202   193   175 1
  203   194   175 1
  204   195   160 1
  205   196   160 1
  206   197   158 1
  207   198   158 1
  208   199   158 1
  209   200   157 1
  210   201   157 1
  211   202   157 1
  212   203   156 1
  213   204   156 1
  214   205   156 1
  215   206   155 1
  216   207   155 1
  217   208   155 1
  218   209   154 1
  219   210   154 1
  220   211   154 1
  221   212   141 1
  222   213   146 1
  223   214   145 1
  224   215   142 1
  225   216   142 1
  226   217   174 1
  227   218   173 1
  228   219   171 1
  229   220   170 1
  230   221   169 1
  231   222   140 1
  232   223   167 1
  233   224   166 1
  234   225   165 1
  235   226   163 1
  236   227   161 1
  237   228   139 1
  238   229   139 1
  239   230   153 1
  240   231   152 1
  241   232   150 1
  242   233   149 1
  243   234   148 1
  244   235   162 1
  245   65    153 1
  246   65    174 1
@<TRIPOS>SUBSTRUCTURE
      1 CLA               1 ****               0 ****  **** 
      2 LUT             138 ****               0 ****  **** 
