@<TRIPOS>MOLECULE
Cpptraj generated mol2 file.
  235   246     2     0     0
SMALL
USER_CHARGES


@<TRIPOS>ATOM
      1 CAA        76.6114   57.7712   35.4275 a2         1 CLA     -0.055900
      2 CAB        77.0385   62.0338   44.0286 c8         1 CLA     -0.148500
      3 CAC        69.7643   58.4603   43.7025 a2         1 CLA     -0.012600
      4 CAD        72.3969   55.1554   36.9442 ck         1 CLA      0.398800
      5 NA         75.6238   58.3997   38.7347 ns         1 CLA     -0.225500
      6 CBA        77.8619   57.8316   34.4420 a2         1 CLA     -0.135000
      7 CBB        78.0087   61.6776   44.9244 c0         1 CLA     -0.395200
      8 CBC        69.5800   56.9209   43.7997 a3         1 CLA     -0.037700
      9 CBD        73.9172   55.5636   36.7007 a1         1 CLA     -0.053900
     10 NB         75.6012   60.1848   41.1239 nm         1 CLA     -0.295700
     11 OBD        71.7665   54.3222   36.3348 o2         1 CLA     -0.494600
     12 CGA        78.4039   56.5115   33.8534 c4         1 CLA      0.827000
     13 CGD        74.8283   54.3339   36.9122 c4         1 CLA      0.655300
     14 ND         72.7572   57.8355   39.2450 nm         1 CLA     -0.291600
     15 CED        74.9395   52.2461   37.9890 a3         1 CLA      0.005400
     16 CHA        74.2829   56.7556   37.6037 cs         1 CLA     -0.123800
     17 CHB        77.4531   59.6604   39.6994 aa         1 CLA     -0.291900
     18 CHC        74.3368   60.6486   43.1218 aa         1 CLA     -0.090400
     19 CHD        70.8736   58.0309   40.7761 aa         1 CLA     -0.052000
     20 CMA        79.0386   57.3311   38.1202 a3         1 CLA     -0.230700
     21 CMB        79.0593   61.5617   41.5564 a3         1 CLA     -0.180800
     22 CMC        72.0221   60.0845   45.2271 a3         1 CLA     -0.134000
     23 CMD        69.5712   55.8833   38.9185 a3         1 CLA     -0.141100
     24 C1         79.4632   54.4940   34.3542 a2         1 CLA      0.023000
     25 C1A        75.4823   57.4952   37.7358 ac         1 CLA     -0.015100
     26 C1B        76.9188   60.2965   40.7916 cr         1 CLA      0.054700
     27 C1C        73.0742   59.9597   42.8539 cn         1 CLA     -0.005600
     28 C1D        71.4749   57.5134   39.5886 ap         1 CLA     -0.047300
     29 O1A        78.6648   56.3253   32.6644 o2         1 CLA     -0.610800
     30 O1D        75.9312   54.0506   36.3828 o2         1 CLA     -0.558200
     31 C2         79.4291   53.4987   35.4872 c8         1 CLA     -0.325100
     32 C2A        76.8089   57.2741   36.8727 a1         1 CLA      0.098600
     33 C2B        77.6329   61.1672   41.6959 cb         1 CLA      0.088500
     34 C2C        72.0213   59.7208   43.8226 cb         1 CLA      0.053700
     35 C2D        70.9597   56.4025   38.7952 cb         1 CLA      0.058900
     36 O2A        78.5861   55.5816   34.8515 o1         1 CLA     -0.437200
     37 O2D        74.2790   53.5075   37.8927 o1         1 CLA     -0.357600
     38 C3         80.5077   52.8713   35.9482 c5         1 CLA      0.031200
     39 C3A        77.8178   58.1432   37.7583 a1         1 CLA      0.166800
     40 C3B        76.7712   61.4013   42.7818 cb         1 CLA      0.035000
     41 C3C        71.0514   58.9003   43.2055 cb         1 CLA     -0.089900
     42 C3D        72.0062   56.0200   37.9931 cb         1 CLA     -0.035900
     43 C4         80.8171   51.3750   35.6351 a3         1 CLA     -0.053300
     44 C4A        76.9111   58.7041   38.8694 ac         1 CLA      0.001800
     45 C4B        75.5346   60.7784   42.3574 cn         1 CLA     -0.020900
     46 C4C        71.4868   58.7331   41.8069 cr         1 CLA     -0.044400
     47 C4D        73.0861   56.9350   38.3400 c6         1 CLA     -0.046000
     48 C5         81.3418   53.4426   37.0391 a2         1 CLA     -0.070400
     49 C6         82.0012   54.8170   36.8618 a2         1 CLA      0.043900
     50 C7         82.5003   55.4221   38.1922 a2         1 CLA     -0.150000
     51 C8         82.8875   56.9436   38.2566 a1         1 CLA      0.064200
     52 C9         83.9853   57.1864   37.1920 a3         1 CLA     -0.259300
     53 C10        83.4526   57.4630   39.6167 a2         1 CLA     -0.071900
     54 C11        82.2475   57.9558   40.5687 a2         1 CLA      0.014500
     55 C12        82.6699   58.5966   41.9045 a2         1 CLA     -0.112100
     56 C13        83.3811   57.6542   42.9710 a1         1 CLA      0.089200
     57 C14        82.5000   56.4707   43.3625 a3         1 CLA     -0.239100
     58 C15        83.8846   58.4566   44.2142 a2         1 CLA     -0.102200
     59 C16        82.7422   59.0708   45.1770 a2         1 CLA      0.023900
     60 C17        83.2171   59.8232   46.3899 a2         1 CLA     -0.105700
     61 C18        82.1515   60.0428   47.5745 a1         1 CLA      0.206800
     62 C19        82.7089   60.9762   48.6902 a3         1 CLA     -0.280100
     63 C20        80.7711   60.5178   47.0935 a3         1 CLA     -0.280100
     64 NC         72.7752   59.2873   41.7161 nx         1 CLA     -0.309200
     65 MG         74.2059   59.0828   40.1056 mg         1 CLA      0.895000
     66 HMD3       69.3880   55.2017   38.1024 dc         1 CLA      0.064300
     67 HMD2       69.4928   55.4693   39.9178 dc         1 CLA      0.064300
     68 HMD1       68.8110   56.6087   38.9033 dc         1 CLA      0.064300
     69 HMC3       72.9724   59.8938   45.6441 dc         1 CLA      0.052100
     70 HMC2       71.8637   61.1617   45.1297 dc         1 CLA      0.052100
     71 HMC1       71.2070   59.6654   45.8347 dc         1 CLA      0.052100
     72 HMB3       79.2262   61.7874   40.5075 dc         1 CLA      0.063600
     73 HMB2       79.2496   62.5461   42.1014 dc         1 CLA      0.063600
     74 HMB1       79.8177   60.8363   41.8737 dc         1 CLA      0.063600
     75 HMA3       79.6888   57.1568   37.2580 dc         1 CLA      0.058300
     76 HMA2       79.6426   57.8558   38.8466 dc         1 CLA      0.058300
     77 HMA1       78.7014   56.3716   38.6315 dc         1 CLA      0.058300
     78 HED3       74.3162   51.5948   38.6618 dc         1 CLA      0.079300
     79 HED2       74.9898   51.7852   37.0140 dc         1 CLA      0.079300
     80 HED1       75.9527   52.3471   38.4769 dc         1 CLA      0.079300
     81 HBC3       69.8759   56.4845   42.8742 dc         1 CLA      0.016300
     82 HBC2       70.3111   56.4745   44.4814 dc         1 CLA      0.016300
     83 HBC1       68.5103   56.7277   44.0492 dc         1 CLA      0.016300
     84 HBB2       78.2436   62.1449   45.8886 da         1 CLA      0.183000
     85 HBB1       78.7248   60.9456   44.4798 da         1 CLA      0.183000
     86 HBA2       77.6175   58.5263   33.6503 dc         1 CLA      0.029400
     87 HBA1       78.6753   58.3622   34.8988 dc         1 CLA      0.029400
     88 HAC2       69.5205   59.0107   44.5695 dc         1 CLA      0.029300
     89 HAC1       69.0562   58.7700   42.9845 dc         1 CLA      0.029300
     90 HAA2       75.8083   57.2511   34.8640 dc         1 CLA      0.028700
     91 HAA1       76.3387   58.8276   35.6597 dc         1 CLA      0.028700
     92 H203       80.1467   60.8511   47.9303 dc         1 CLA      0.065600
     93 H202       80.9350   61.4161   46.5287 dc         1 CLA      0.065600
     94 H201       80.3016   59.6803   46.5393 dc         1 CLA      0.065600
     95 H193       82.1126   61.0864   49.5387 dc         1 CLA      0.065600
     96 H192       83.5714   60.4397   48.9209 dc         1 CLA      0.065600
     97 H191       83.0358   61.9267   48.2963 dc         1 CLA      0.065600
     98 H172       83.9689   59.1860   46.8011 dc         1 CLA      0.027600
     99 H171       83.6884   60.7835   46.1271 dc         1 CLA      0.027600
    100 H162       81.9274   59.6054   44.7096 dc         1 CLA      0.002900
    101 H161       82.2685   58.1892   45.6389 dc         1 CLA      0.002900
    102 H152       84.7659   57.8890   44.6633 dc         1 CLA      0.029100
    103 H151       84.3975   59.3825   43.7918 dc         1 CLA      0.029100
    104 H143       82.8111   56.0115   44.3575 dc         1 CLA      0.063600
    105 H142       81.4466   56.8509   43.5211 dc         1 CLA      0.063600
    106 H141       82.5096   55.6133   42.6977 dc         1 CLA      0.063600
    107 H122       83.4136   59.3950   41.7342 dc         1 CLA      0.032500
    108 H121       81.7774   59.0077   42.3404 dc         1 CLA      0.032500
    109 H112       81.6485   58.7145   40.1969 dc         1 CLA      0.006600
    110 H111       81.6627   57.0788   40.8174 dc         1 CLA      0.006600
    111 H102       84.0511   56.7197   40.0716 dc         1 CLA      0.024100
    112 H101       84.1328   58.3556   39.5330 dc         1 CLA      0.024100
    113 HHD        69.8043   57.7922   41.0202 da         1 CLA      0.174300
    114 HHC        74.4934   61.0996   44.0737 da         1 CLA      0.136800
    115 HHB        78.4957   59.8321   39.4861 da         1 CLA      0.138300
    116 HBD        74.0368   55.8451   35.6746 dc         1 CLA      0.107700
    117 HAB        76.3459   62.8350   44.2611 da         1 CLA      0.155200
    118 H93        84.7583   56.4042   37.3181 dc         1 CLA      0.069500
    119 H92        83.5720   57.1818   36.1739 dc         1 CLA      0.069500
    120 H91        84.4707   58.1867   37.4288 dc         1 CLA      0.069500
    121 H8         82.0050   57.4260   37.9710 dc         1 CLA      0.029300
    122 H72        81.7273   55.2369   38.9467 dc         1 CLA      0.044400
    123 H71        83.3549   54.7807   38.5013 dc         1 CLA      0.044400
    124 H62        82.7689   54.6894   36.0565 dc         1 CLA      0.015600
    125 H61        81.1826   55.3739   36.4765 dc         1 CLA      0.015600
    126 H52        80.6665   53.5718   37.8816 dc         1 CLA      0.033200
    127 H51        82.1099   52.7575   37.4725 dc         1 CLA      0.033200
    128 H43        80.5987   50.6607   36.5052 dc         1 CLA      0.037000
    129 H42        80.2527   50.9764   34.7810 dc         1 CLA      0.037000
    130 H41        81.8708   51.2595   35.4633 dc         1 CLA      0.037000
    131 H3A        78.1213   59.0217   37.2963 dc         1 CLA      0.041100
    132 H2A        77.1446   56.2127   36.9842 dc         1 CLA      0.083100
    133 H2         78.5745   53.5306   36.1317 da         1 CLA      0.180900
    134 H18        82.0571   59.0163   48.0311 dc         1 CLA     -0.003900
    135 H13        84.2275   57.2366   42.5197 dc         1 CLA      0.019700
    136 H12        79.1285   53.9591   33.4728 dc         1 CLA      0.120400
    137 H11        80.6003   54.7569   34.2884 dc         1 CLA      0.120400
    138 C1         66.7250   61.6865   50.0566 Z1         2 LUT      0.509236
    139 C2         65.5382   61.3990   50.9897 Z2         2 LUT     -0.434695
    140 C3         64.7056   62.6775   51.3363 Z3         2 LUT      0.437453
    141 O3         65.0650   63.0738   52.6025 S1         2 LUT     -0.547129
    142 C4         64.8024   63.9024   50.4389 Z4         2 LUT     -0.468603
    143 C5         65.3899   63.6753   49.1379 Z5         2 LUT      0.279246
    144 C6         66.2026   62.6180   48.9161 Z6         2 LUT     -0.305473
    145 C7         66.3875   62.1555   47.5267 Z7         2 LUT      0.069402
    146 C8         67.4465   62.3664   46.7481 Z8         2 LUT     -0.191631
    147 C9         67.8749   61.9810   45.4387 Z9         2 LUT      0.196698
    148 C10        68.9756   62.5344   44.9409 Y1         2 LUT     -0.208611
    149 C11        69.6508   62.2117   43.7584 Y2         2 LUT      0.030784
    150 C12        70.6295   63.1642   43.3009 Y3         2 LUT     -0.220316
    151 C13        71.5525   63.0421   42.1632 Y4         2 LUT      0.215937
    152 C14        72.7365   63.7425   42.2683 Y5         2 LUT     -0.185793
    153 C15        73.9001   63.5112   41.4186 Y6         2 LUT     -0.057835
    154 C16        67.3013   60.3802   49.5767 Y7         2 LUT     -0.405615
    155 C17        67.7095   62.4606   50.8828 Y7         2 LUT     -0.405615
    156 C18        64.8611   64.6664   48.1524 Y9         2 LUT     -0.369639
    157 C19        67.1271   60.8537   44.7454 W1         2 LUT     -0.333362
    158 C20        71.1591   62.1434   41.0428 W2         2 LUT     -0.323439
    159 C21        85.2926   65.2169   35.5411 Z1         2 LUT      0.406104
    160 C22        86.1433   64.8712   34.2786 Z2         2 LUT     -0.404965
    161 C23        86.2994   65.8908   33.1718 Z3         2 LUT      0.391255
    162 O23        87.0683   65.2167   32.1797 S1         2 LUT     -0.528210
    163 C24        84.9216   66.5800   32.8481 W6         2 LUT     -0.258361
    164 C25        83.8682   66.4706   33.7095 Z5         2 LUT      0.133546
    165 C26        83.8566   65.5735   34.9732 W8         2 LUT     -0.147008
    166 C27        83.0724   66.3119   36.1385 Z7         2 LUT      0.023843
    167 C28        82.1120   65.6961   36.8284 Z8         2 LUT     -0.216987
    168 C29        81.4849   66.0459   38.1104 Z9         2 LUT      0.206524
    169 C30        80.3852   65.3301   38.5886 Y1         2 LUT     -0.215556
    170 C31        79.6164   65.4089   39.8200 Y2         2 LUT      0.025142
    171 C32        78.3637   64.8465   39.8874 Y3         2 LUT     -0.212209
    172 C33        77.3906   64.9896   40.9026 Y4         2 LUT      0.240937
    173 C34        76.2428   64.3119   40.8202 Y5         2 LUT     -0.218862
    174 C35        75.0528   64.1539   41.6492 Y6         2 LUT     -0.023547
    175 C36        86.0218   66.2973   36.2988 Y7         2 LUT     -0.393485
    176 C37        85.2787   63.8994   36.3453 Y7         2 LUT     -0.393485
    177 C38        82.6473   67.3253   33.2977 Y9         2 LUT     -0.387526
    178 C39        82.0667   67.2388   38.8875 W1         2 LUT     -0.322618
    179 C40        77.7682   65.9283   42.0964 W2         2 LUT     -0.358472
    180 H403       76.9634   65.9036   42.8071 R7         2 LUT      0.097720
    181 H402       78.6170   65.5265   42.6773 R7         2 LUT      0.097720
    182 H401       78.0129   66.9229   41.8026 R7         2 LUT      0.097720
    183 H393       82.0880   68.1979   38.3166 R4         2 LUT      0.082505
    184 H392       81.4475   67.5266   39.7491 R4         2 LUT      0.082505
    185 H391       83.0753   67.1624   39.1849 R4         2 LUT      0.082505
    186 H383       82.3132   66.9974   32.3828 R1         2 LUT      0.104030
    187 H382       81.9233   67.3463   34.0951 R1         2 LUT      0.104030
    188 H381       82.9503   68.3201   33.0820 R1         2 LUT      0.104030
    189 H373       84.7363   64.0548   37.2915 T4         2 LUT      0.089537
    190 H372       84.6275   63.1040   35.8878 T4         2 LUT      0.089537
    191 H371       86.2391   63.5350   36.6915 T4         2 LUT      0.089537
    192 H363       85.6543   67.1739   35.8649 T4         2 LUT      0.089537
    193 H362       85.7719   66.3354   37.3905 T4         2 LUT      0.089537
    194 H361       87.0581   66.1689   36.1405 T4         2 LUT      0.089537
    195 H222       87.2104   64.7108   34.6056 U2         2 LUT      0.127376
    196 H221       85.7151   63.9054   33.8537 U2         2 LUT      0.127376
    197 H203       70.2285   62.4564   40.5962 R7         2 LUT      0.087068
    198 H202       71.8737   62.1864   40.2446 R7         2 LUT      0.087068
    199 H201       71.0523   61.1470   41.4724 R7         2 LUT      0.087068
    200 H193       66.0831   60.9772   44.9282 R4         2 LUT      0.089716
    201 H192       67.2605   60.7793   43.6770 R4         2 LUT      0.089716
    202 H191       67.4894   59.9052   45.2096 R4         2 LUT      0.089716
    203 H183       63.8883   65.0975   48.4598 R1         2 LUT      0.094572
    204 H182       65.5366   65.4715   47.9957 R1         2 LUT      0.094572
    205 H181       64.6946   64.0938   47.2301 R1         2 LUT      0.094572
    206 H173       67.3818   63.5287   51.0622 T4         2 LUT      0.093752
    207 H172       67.8203   61.9273   51.8665 T4         2 LUT      0.093752
    208 H171       68.7734   62.5049   50.4879 T4         2 LUT      0.093752
    209 H163       67.5417   59.7321   50.4722 T4         2 LUT      0.093752
    210 H162       66.5591   59.8565   48.9401 T4         2 LUT      0.093752
    211 H161       68.2492   60.4169   49.0486 T4         2 LUT      0.093752
    212 HO3        64.7435   62.5135   53.3247 Q1         2 LUT      0.300121
    213 H8         68.2069   62.9963   47.2146 U7         2 LUT      0.080784
    214 H7         65.7075   61.3923   47.0927 U6         2 LUT      0.042190
    215 H42        63.8171   64.3722   50.4047 U5         2 LUT      0.145166
    216 H41        65.2475   64.7306   51.0860 U5         2 LUT      0.145166
    217 H35        75.1126   64.7482   42.5697 T3         2 LUT      0.077919
    218 H34        76.0791   63.6807   39.9569 T2         2 LUT      0.073626
    219 H32        78.0207   64.2712   39.0463 T1         2 LUT      0.092510
    220 H31        79.9483   66.0097   40.6200 U9         2 LUT      0.070048
    221 H30        79.9683   64.5894   37.8791 U8         2 LUT      0.085442
    222 H3         63.6123   62.5230   51.2822 U3         2 LUT     -0.031596
    223 H28        81.7764   64.6832   36.4985 U7         2 LUT      0.084728
    224 H27        83.5446   67.1197   36.6133 U6         2 LUT      0.087291
    225 H26        83.3507   64.6857   34.5866 Q6         2 LUT      0.075325
    226 H24        84.9626   67.1077   31.9736 Q5         2 LUT      0.094482
    227 H23        86.9966   66.6880   33.4312 U3         2 LUT     -0.024869
    228 H22        64.8907   60.6907   50.4950 U2         2 LUT      0.127376
    229 H21        65.8875   60.8106   51.8569 U2         2 LUT      0.127376
    230 H15        73.9921   62.7320   40.6176 T3         2 LUT      0.093200
    231 H14        73.0446   64.2126   43.2474 T2         2 LUT      0.068865
    232 H12        70.7602   64.1153   43.9607 T1         2 LUT      0.095507
    233 H11        69.4004   61.3178   43.2093 U9         2 LUT      0.068930
    234 H10        69.5025   63.2792   45.5249 U8         2 LUT      0.083911
    235 H1         86.5612   65.1010   31.3416 Q1         2 LUT      0.297311
@<TRIPOS>BOND
    1     6     1 1
    2     7     2 1
    3     8     3 1
    4     9     4 1
    5    11     4 1
    6    12     6 1
    7    13     9 1
    8    16     9 1
    9    25     5 1
   10    25    16 1
   11    26    10 1
   12    26    17 1
   13    27    18 1
   14    28    14 1
   15    28    19 1
   16    29    12 1
   17    30    13 1
   18    31    24 1
   19    32     1 1
   20    32    25 1
   21    33    21 1
   22    33    26 1
   23    34    22 1
   24    34    27 1
   25    35    23 1
   26    35    28 1
   27    36    12 1
   28    36    24 1
   29    37    13 1
   30    37    15 1
   31    38    31 1
   32    39    20 1
   33    39    32 1
   34    40     2 1
   35    40    33 1
   36    41     3 1
   37    41    34 1
   38    42     4 1
   39    42    35 1
   40    43    38 1
   41    44     5 1
   42    44    17 1
   43    44    39 1
   44    45    10 1
   45    45    18 1
   46    45    40 1
   47    46    19 1
   48    46    41 1
   49    47    14 1
   50    47    16 1
   51    47    42 1
   52    48    38 1
   53    49    48 1
   54    50    49 1
   55    51    50 1
   56    52    51 1
   57    53    51 1
   58    54    53 1
   59    55    54 1
   60    56    55 1
   61    57    56 1
   62    58    56 1
   63    59    58 1
   64    60    59 1
   65    61    60 1
   66    62    61 1
   67    63    61 1
   68    64    27 1
   69    64    46 1
   70    65     5 1
   71    65    10 1
   72    65    64 1
   73    65    14 1
   74    66    23 1
   75    67    23 1
   76    68    23 1
   77    69    22 1
   78    70    22 1
   79    71    22 1
   80    72    21 1
   81    73    21 1
   82    74    21 1
   83    75    20 1
   84    76    20 1
   85    77    20 1
   86    78    15 1
   87    79    15 1
   88    80    15 1
   89    81     8 1
   90    82     8 1
   91    83     8 1
   92    84     7 1
   93    85     7 1
   94    86     6 1
   95    87     6 1
   96    88     3 1
   97    89     3 1
   98    90     1 1
   99    91     1 1
  100    92    63 1
  101    93    63 1
  102    94    63 1
  103    95    62 1
  104    96    62 1
  105    97    62 1
  106    98    60 1
  107    99    60 1
  108   100    59 1
  109   101    59 1
  110   102    58 1
  111   103    58 1
  112   104    57 1
  113   105    57 1
  114   106    57 1
  115   107    55 1
  116   108    55 1
  117   109    54 1
  118   110    54 1
  119   111    53 1
  120   112    53 1
  121   113    19 1
  122   114    18 1
  123   115    17 1
  124   116     9 1
  125   117     2 1
  126   118    52 1
  127   119    52 1
  128   120    52 1
  129   121    51 1
  130   122    50 1
  131   123    50 1
  132   124    49 1
  133   125    49 1
  134   126    48 1
  135   127    48 1
  136   128    43 1
  137   129    43 1
  138   130    43 1
  139   131    39 1
  140   132    32 1
  141   133    31 1
  142   134    61 1
  143   135    56 1
  144   136    24 1
  145   137    24 1
  146   139   138 1
  147   140   139 1
  148   141   140 1
  149   142   140 1
  150   143   142 1
  151   144   138 1
  152   144   143 1
  153   145   144 1
  154   146   145 1
  155   147   146 1
  156   148   147 1
  157   149   148 1
  158   150   149 1
  159   151   150 1
  160   152   151 1
  161   153   152 1
  162   154   138 1
  163   155   138 1
  164   156   143 1
  165   157   147 1
  166   158   151 1
  167   160   159 1
  168   161   160 1
  169   162   161 1
  170   163   161 1
  171   164   163 1
  172   165   159 1
  173   165   164 1
  174   166   165 1
  175   167   166 1
  176   168   167 1
  177   169   168 1
  178   170   169 1
  179   171   170 1
  180   172   171 1
  181   173   172 1
  182   174   153 1
  183   174   173 1
  184   175   159 1
  185   176   159 1
  186   177   164 1
  187   178   168 1
  188   179   172 1
  189   180   179 1
  190   181   179 1
  191   182   179 1
  192   183   178 1
  193   184   178 1
  194   185   178 1
  195   186   177 1
  196   187   177 1
  197   188   177 1
  198   189   176 1
  199   190   176 1
  200   191   176 1
  201   192   175 1
  202   193   175 1
  203   194   175 1
  204   195   160 1
  205   196   160 1
  206   197   158 1
  207   198   158 1
  208   199   158 1
  209   200   157 1
  210   201   157 1
  211   202   157 1
  212   203   156 1
  213   204   156 1
  214   205   156 1
  215   206   155 1
  216   207   155 1
  217   208   155 1
  218   209   154 1
  219   210   154 1
  220   211   154 1
  221   212   141 1
  222   213   146 1
  223   214   145 1
  224   215   142 1
  225   216   142 1
  226   217   174 1
  227   218   173 1
  228   219   171 1
  229   220   170 1
  230   221   169 1
  231   222   140 1
  232   223   167 1
  233   224   166 1
  234   225   165 1
  235   226   163 1
  236   227   161 1
  237   228   139 1
  238   229   139 1
  239   230   153 1
  240   231   152 1
  241   232   150 1
  242   233   149 1
  243   234   148 1
  244   235   162 1
  245   65    153 1
  246   65    174 1
@<TRIPOS>SUBSTRUCTURE
      1 CLA               1 ****               0 ****  **** 
      2 LUT             138 ****               0 ****  **** 
