@<TRIPOS>MOLECULE
Cpptraj generated mol2 file.
  235   246     2     0     0
SMALL
USER_CHARGES


@<TRIPOS>ATOM
      1 CAA        77.2723   57.3624   34.0151 a2         1 CLA     -0.055900
      2 CAB        77.5353   60.9850   43.1044 c8         1 CLA     -0.148500
      3 CAC        70.3868   57.2806   42.5294 a2         1 CLA     -0.012600
      4 CAD        72.9015   55.0002   35.1261 ck         1 CLA      0.398800
      5 NA         76.2953   57.7229   37.4572 ns         1 CLA     -0.225500
      6 CBA        78.5125   57.1563   33.1494 a2         1 CLA     -0.135000
      7 CBB        78.7160   60.7963   43.8184 c0         1 CLA     -0.395200
      8 CBC        70.4893   55.8004   42.5919 a3         1 CLA     -0.037700
      9 CBD        74.3852   55.4835   34.7773 a1         1 CLA     -0.053900
     10 NB         76.2083   59.2573   40.0749 nm         1 CLA     -0.295700
     11 OBD        72.2211   54.3209   34.3315 o2         1 CLA     -0.494600
     12 CGA        78.9268   55.7886   32.6963 c4         1 CLA      0.827000
     13 CGD        75.3328   54.3526   34.4553 c4         1 CLA      0.655300
     14 ND         73.4636   56.9953   38.0132 nm         1 CLA     -0.291600
     15 CED        76.1399   52.1911   35.1632 a3         1 CLA      0.005400
     16 CHA        74.7827   56.4335   35.9555 cs         1 CLA     -0.123800
     17 CHB        78.2295   58.8220   38.6003 aa         1 CLA     -0.291900
     18 CHC        74.8293   59.5750   42.0383 aa         1 CLA     -0.090400
     19 CHD        71.6073   56.8345   39.5926 aa         1 CLA     -0.052000
     20 CMA        79.7160   56.9242   36.7281 a3         1 CLA     -0.230700
     21 CMB        79.6151   60.6866   40.7358 a3         1 CLA     -0.180800
     22 CMC        72.6428   58.9417   44.2084 a3         1 CLA     -0.134000
     23 CMD        70.2330   54.9669   37.3676 a3         1 CLA     -0.141100
     24 C1         79.5228   53.5839   33.4859 a2         1 CLA      0.023000
     25 C1A        76.0144   57.0493   36.2935 ac         1 CLA     -0.015100
     26 C1B        77.5395   59.4185   39.7343 cr         1 CLA      0.054700
     27 C1C        73.6477   58.9262   41.7813 cn         1 CLA     -0.005600
     28 C1D        72.1804   56.5053   38.3855 ap         1 CLA     -0.047300
     29 O1A        78.6860   55.3515   31.5787 o2         1 CLA     -0.610800
     30 O1D        76.1547   54.3575   33.5196 o2         1 CLA     -0.558200
     31 C2         80.2115   52.9146   34.6590 c8         1 CLA     -0.325100
     32 C2A        77.3493   56.8992   35.5003 a1         1 CLA      0.098600
     33 C2B        78.1651   60.2677   40.7292 cb         1 CLA      0.088500
     34 C2C        72.6071   58.5503   42.7448 cb         1 CLA      0.053700
     35 C2D        71.5759   55.6821   37.3829 cb         1 CLA      0.058900
     36 O2A        79.5819   55.0388   33.6909 o1         1 CLA     -0.437200
     37 O2D        75.1668   53.2710   35.3209 o1         1 CLA     -0.357600
     38 C3         81.1669   51.9562   34.5566 c5         1 CLA      0.031200
     39 C3A        78.3952   57.6663   36.2934 a1         1 CLA      0.166800
     40 C3B        77.2691   60.4391   41.7626 cb         1 CLA      0.035000
     41 C3C        71.6231   57.9100   41.9668 cb         1 CLA     -0.089900
     42 C3D        72.6121   55.5814   36.3986 cb         1 CLA     -0.035900
     43 C4         80.8438   50.4923   34.7404 a3         1 CLA     -0.053300
     44 C4A        77.6472   58.1307   37.5277 ac         1 CLA      0.001800
     45 C4B        76.0811   59.7567   41.3429 cn         1 CLA     -0.020900
     46 C4C        72.1846   57.6627   40.6450 cr         1 CLA     -0.044400
     47 C4D        73.6485   56.4555   36.7979 c6         1 CLA     -0.046000
     48 C5         82.5344   52.2981   34.2531 a2         1 CLA     -0.070400
     49 C6         83.0800   53.7658   34.5999 a2         1 CLA      0.043900
     50 C7         83.3841   53.9038   36.0649 a2         1 CLA     -0.150000
     51 C8         83.7569   55.3248   36.6225 a1         1 CLA      0.064200
     52 C9         85.1303   55.8620   36.0314 a3         1 CLA     -0.259300
     53 C10        83.8254   55.3015   38.1806 a2         1 CLA     -0.071900
     54 C11        82.4774   55.3352   38.9023 a2         1 CLA      0.014500
     55 C12        82.6902   55.7332   40.4162 a2         1 CLA     -0.112100
     56 C13        81.3437   55.7818   41.3137 a1         1 CLA      0.089200
     57 C14        80.2359   56.7563   40.7802 a3         1 CLA     -0.239100
     58 C15        81.4874   55.8489   42.9195 a2         1 CLA     -0.102200
     59 C16        81.8990   57.1793   43.5489 a2         1 CLA      0.023900
     60 C17        83.3138   57.6722   43.3001 a2         1 CLA     -0.105700
     61 C18        83.8899   58.4899   44.5191 a1         1 CLA      0.206800
     62 C19        83.0094   59.6246   45.1751 a3         1 CLA     -0.280100
     63 C20        84.3839   57.4838   45.6701 a3         1 CLA     -0.280100
     64 NC         73.3823   58.3460   40.5772 nx         1 CLA     -0.309200
     65 MG         74.7593   58.2027   39.0028 mg         1 CLA      0.895000
     66 HMD3       70.3378   54.0645   36.7672 dc         1 CLA      0.064300
     67 HMD2       70.0161   54.5488   38.3243 dc         1 CLA      0.064300
     68 HMD1       69.4595   55.6589   37.0993 dc         1 CLA      0.064300
     69 HMC3       72.1339   59.8701   44.2826 dc         1 CLA      0.052100
     70 HMC2       72.1712   58.1433   44.8149 dc         1 CLA      0.052100
     71 HMC1       73.7116   59.1696   44.5571 dc         1 CLA      0.052100
     72 HMB3       79.6352   61.7697   40.9185 dc         1 CLA      0.063600
     73 HMB2       80.2662   60.1702   41.4312 dc         1 CLA      0.063600
     74 HMB1       79.8531   60.6636   39.6788 dc         1 CLA      0.063600
     75 HMA3       79.4133   56.1245   37.4472 dc         1 CLA      0.058300
     76 HMA2       80.2524   56.6130   35.8573 dc         1 CLA      0.058300
     77 HMA1       80.3190   57.6586   37.2868 dc         1 CLA      0.058300
     78 HED3       75.8784   51.6726   34.1924 dc         1 CLA      0.079300
     79 HED2       77.1835   52.4542   35.1220 dc         1 CLA      0.079300
     80 HED1       75.9089   51.4240   35.9120 dc         1 CLA      0.079300
     81 HBC3       69.4400   55.3964   42.7102 dc         1 CLA      0.016300
     82 HBC2       71.1031   55.3539   41.8059 dc         1 CLA      0.016300
     83 HBC1       70.9741   55.6481   43.5617 dc         1 CLA      0.016300
     84 HBB2       78.9402   61.2420   44.8194 da         1 CLA      0.183000
     85 HBB1       79.5543   60.1841   43.4282 da         1 CLA      0.183000
     86 HBA2       78.2479   57.6636   32.1871 dc         1 CLA      0.029400
     87 HBA1       79.2645   57.7740   33.6188 dc         1 CLA      0.029400
     88 HAC2       70.1481   57.8706   43.4979 dc         1 CLA      0.029300
     89 HAC1       69.6120   57.3749   41.8342 dc         1 CLA      0.029300
     90 HAA2       76.3245   57.0314   33.4527 dc         1 CLA      0.028700
     91 HAA1       77.1493   58.4257   33.9362 dc         1 CLA      0.028700
     92 H203       84.7418   57.9857   46.5850 dc         1 CLA      0.065600
     93 H202       83.4312   57.0426   45.9771 dc         1 CLA      0.065600
     94 H201       85.1133   56.6590   45.3392 dc         1 CLA      0.065600
     95 H193       82.3867   59.0304   45.8571 dc         1 CLA      0.065600
     96 H192       83.7327   60.0885   45.8733 dc         1 CLA      0.065600
     97 H191       82.5135   60.2266   44.4276 dc         1 CLA      0.065600
     98 H172       83.9901   56.9502   42.9953 dc         1 CLA      0.027600
     99 H171       83.0759   58.2828   42.4544 dc         1 CLA      0.027600
    100 H162       81.1297   57.9270   43.4627 dc         1 CLA      0.002900
    101 H161       81.7938   56.9888   44.5871 dc         1 CLA      0.002900
    102 H152       80.6067   55.4443   43.3445 dc         1 CLA      0.029100
    103 H151       82.2339   55.1451   43.2268 dc         1 CLA      0.029100
    104 H143       79.7723   56.4811   39.8711 dc         1 CLA      0.063600
    105 H142       79.4055   56.8423   41.5138 dc         1 CLA      0.063600
    106 H141       80.5742   57.8232   40.7411 dc         1 CLA      0.063600
    107 H122       83.3075   55.0004   40.8292 dc         1 CLA      0.032500
    108 H121       83.1532   56.7215   40.4830 dc         1 CLA      0.032500
    109 H112       81.9120   56.2671   38.4899 dc         1 CLA      0.006600
    110 H111       81.9354   54.3536   38.6561 dc         1 CLA      0.006600
    111 H102       84.3761   54.3928   38.5656 dc         1 CLA      0.024100
    112 H101       84.3502   56.2123   38.5200 dc         1 CLA      0.024100
    113 HHD        70.5658   56.3719   39.7671 da         1 CLA      0.174300
    114 HHC        74.8517   60.0742   43.0048 da         1 CLA      0.136800
    115 HHB        79.2393   59.0627   38.2830 da         1 CLA      0.138300
    116 HBD        74.2624   56.0995   33.9111 dc         1 CLA      0.107700
    117 HAB        76.7448   61.5833   43.5764 da         1 CLA      0.155200
    118 H93        85.9395   55.2005   36.3105 dc         1 CLA      0.069500
    119 H92        85.0993   55.7627   34.9405 dc         1 CLA      0.069500
    120 H91        85.3675   56.9080   36.3197 dc         1 CLA      0.069500
    121 H8         82.8940   55.9561   36.3849 dc         1 CLA      0.029300
    122 H72        82.4710   53.4623   36.5139 dc         1 CLA      0.044400
    123 H71        84.2622   53.3294   36.2962 dc         1 CLA      0.044400
    124 H62        83.9817   53.9737   34.1042 dc         1 CLA      0.015600
    125 H61        82.3667   54.5115   34.2620 dc         1 CLA      0.015600
    126 H52        83.2343   51.5672   34.7087 dc         1 CLA      0.033200
    127 H51        82.6195   52.4146   33.1895 dc         1 CLA      0.033200
    128 H43        81.3545   50.1120   35.5877 dc         1 CLA      0.037000
    129 H42        79.8068   50.2779   34.9679 dc         1 CLA      0.037000
    130 H41        81.2108   49.9925   33.8506 dc         1 CLA      0.037000
    131 H3A        78.7795   58.5348   35.7510 dc         1 CLA      0.041100
    132 H2A        77.6735   55.8354   35.5324 dc         1 CLA      0.083100
    133 H2         80.0380   53.5022   35.5898 da         1 CLA      0.180900
    134 H18        84.7048   58.9739   44.0533 dc         1 CLA     -0.003900
    135 H13        80.9691   54.7987   41.1663 dc         1 CLA      0.019700
    136 H12        78.4340   53.4081   33.4226 dc         1 CLA      0.120400
    137 H11        80.1162   53.2897   32.6277 dc         1 CLA      0.120400
    138 C1         67.0934   60.5599   49.9177 Z1         2 LUT      0.509236
    139 C2         67.3199   61.7728   50.8879 Z2         2 LUT     -0.434695
    140 C3         66.2176   62.7910   51.0056 Z3         2 LUT      0.437453
    141 O3         66.8083   64.0494   50.9787 S1         2 LUT     -0.547129
    142 C4         65.1736   62.5960   49.9578 Z4         2 LUT     -0.468603
    143 C5         65.7015   62.1507   48.6288 Z5         2 LUT      0.279246
    144 C6         66.5048   61.0717   48.5569 Z6         2 LUT     -0.305473
    145 C7         67.2859   60.7728   47.3111 Z7         2 LUT      0.069402
    146 C8         68.2326   61.3789   46.6179 Z8         2 LUT     -0.191631
    147 C9         68.7712   61.0344   45.3033 Z9         2 LUT      0.196698
    148 C10        69.7911   61.8640   44.8335 Y1         2 LUT     -0.208611
    149 C11        70.4664   61.8527   43.5529 Y2         2 LUT      0.030784
    150 C12        71.5435   62.5767   43.1979 Y3         2 LUT     -0.220316
    151 C13        72.3439   62.4662   42.0204 Y4         2 LUT      0.215937
    152 C14        73.6041   63.0577   42.0523 Y5         2 LUT     -0.185793
    153 C15        74.6986   62.9057   41.2321 Y6         2 LUT     -0.057835
    154 C16        66.2171   59.5931   50.7835 Y7         2 LUT     -0.405615
    155 C17        68.4789   59.8736   49.7298 Y7         2 LUT     -0.405615
    156 C18        65.4121   63.1416   47.5134 Y9         2 LUT     -0.369639
    157 C19        68.2255   59.9032   44.4360 W1         2 LUT     -0.333362
    158 C20        71.6954   61.9606   40.7096 W2         2 LUT     -0.323439
    159 C21        85.5689   64.4556   34.5602 Z1         2 LUT      0.406104
    160 C22        86.4628   63.9103   33.4963 Z2         2 LUT     -0.404965
    161 C23        86.8926   64.8996   32.4879 Z3         2 LUT      0.391255
    162 O23        87.7022   64.2518   31.5064 S1         2 LUT     -0.528210
    163 C24        85.7052   65.8541   32.0654 W6         2 LUT     -0.258361
    164 C25        84.5323   65.9007   32.6904 Z5         2 LUT      0.133546
    165 C26        84.2789   64.9922   33.8288 W8         2 LUT     -0.147008
    166 C27        83.2608   65.5430   34.8398 Z7         2 LUT      0.023843
    167 C28        82.2444   64.9109   35.4958 Z8         2 LUT     -0.216987
    168 C29        81.6603   65.3227   36.7462 Z9         2 LUT      0.206524
    169 C30        80.6555   64.5670   37.3446 Y1         2 LUT     -0.215556
    170 C31        79.9030   64.7103   38.5504 Y2         2 LUT      0.025142
    171 C32        78.9025   63.9862   38.9916 Y3         2 LUT     -0.212209
    172 C33        78.0439   64.3077   40.0686 Y4         2 LUT      0.240937
    173 C34        76.8688   63.6475   40.3039 Y5         2 LUT     -0.218862
    174 C35        75.8426   63.7018   41.2872 Y6         2 LUT     -0.023547
    175 C36        86.3459   65.4759   35.4499 Y7         2 LUT     -0.393485
    176 C37        85.1604   63.2179   35.3444 Y7         2 LUT     -0.393485
    177 C38        83.3865   66.7242   32.1154 Y9         2 LUT     -0.387526
    178 C39        82.1419   66.6408   37.3508 W1         2 LUT     -0.322618
    179 C40        78.4886   65.4065   40.9967 W2         2 LUT     -0.358472
    180 H403       78.5936   66.3886   40.5464 R7         2 LUT      0.097720
    181 H402       77.7158   65.6225   41.7029 R7         2 LUT      0.097720
    182 H401       79.4241   65.2047   41.5867 R7         2 LUT      0.097720
    183 H393       83.2103   66.7455   37.3682 R4         2 LUT      0.082505
    184 H392       81.7852   67.4189   36.7170 R4         2 LUT      0.082505
    185 H391       81.7221   66.7873   38.3514 R4         2 LUT      0.082505
    186 H383       82.5262   66.0140   32.0790 R1         2 LUT      0.104030
    187 H382       82.9770   67.5369   32.7461 R1         2 LUT      0.104030
    188 H381       83.5167   67.0962   31.1242 R1         2 LUT      0.104030
    189 H373       84.5298   62.5633   34.7379 T4         2 LUT      0.089537
    190 H372       85.9950   62.6266   35.6806 T4         2 LUT      0.089537
    191 H371       84.5936   63.4487   36.1649 T4         2 LUT      0.089537
    192 H363       87.2321   65.0840   35.9425 T4         2 LUT      0.089537
    193 H362       86.4916   66.3275   34.8529 T4         2 LUT      0.089537
    194 H361       85.7383   65.9014   36.2761 T4         2 LUT      0.089537
    195 H222       87.4108   63.5907   33.9442 U2         2 LUT      0.127376
    196 H221       86.1465   63.0201   33.0854 U2         2 LUT      0.127376
    197 H203       70.8145   62.4641   40.3266 R7         2 LUT      0.087068
    198 H202       72.4296   61.9983   39.9128 R7         2 LUT      0.087068
    199 H201       71.3787   60.8700   40.8137 R7         2 LUT      0.087068
    200 H193       68.3305   59.9993   43.3305 R4         2 LUT      0.089716
    201 H192       68.6217   59.0028   44.8539 R4         2 LUT      0.089716
    202 H191       67.1453   59.8010   44.6130 R4         2 LUT      0.089716
    203 H183       66.0469   64.0193   47.6442 R1         2 LUT      0.094572
    204 H182       65.7750   62.7803   46.5037 R1         2 LUT      0.094572
    205 H181       64.3429   63.5005   47.4852 R1         2 LUT      0.094572
    206 H173       68.9586   59.5819   50.6922 T4         2 LUT      0.093752
    207 H172       68.4655   59.0023   49.1020 T4         2 LUT      0.093752
    208 H171       69.1920   60.5287   49.1454 T4         2 LUT      0.093752
    209 H163       66.6463   59.3729   51.7903 T4         2 LUT      0.093752
    210 H162       65.2041   59.7423   50.8420 T4         2 LUT      0.093752
    211 H161       66.3173   58.5983   50.2985 T4         2 LUT      0.093752
    212 HO3        66.3455   64.7445   51.4812 Q1         2 LUT      0.300121
    213 H8         68.7254   62.2053   47.0736 U7         2 LUT      0.080784
    214 H7         66.9260   59.9106   46.8384 U6         2 LUT      0.042190
    215 H42        64.5872   61.6967   50.2482 U5         2 LUT      0.145166
    216 H41        64.3856   63.4103   49.8776 U5         2 LUT      0.145166
    217 H35        75.9733   64.4343   42.0523 T3         2 LUT      0.077919
    218 H34        76.5818   62.9058   39.5212 T2         2 LUT      0.073626
    219 H32        78.5988   63.1286   38.3019 T1         2 LUT      0.092510
    220 H31        80.2086   65.5358   39.1776 U9         2 LUT      0.070048
    221 H30        80.3206   63.7340   36.7631 U8         2 LUT      0.085442
    222 H3         65.7760   62.6334   52.0084 U3         2 LUT     -0.031596
    223 H28        81.7487   64.0338   34.9495 U7         2 LUT      0.084728
    224 H27        83.7118   66.4015   35.3127 U6         2 LUT      0.087291
    225 H26        83.7630   64.1051   33.3794 Q6         2 LUT      0.075325
    226 H24        85.8955   66.4662   31.1467 Q5         2 LUT      0.094482
    227 H23        87.5976   65.6109   32.9606 U3         2 LUT     -0.024869
    228 H22        67.5624   61.5346   51.9224 U2         2 LUT      0.127376
    229 H21        68.2155   62.2826   50.4376 U2         2 LUT      0.127376
    230 H15        74.5134   62.2501   40.3710 T3         2 LUT      0.093200
    231 H14        73.9316   63.6484   42.9619 T2         2 LUT      0.068865
    232 H12        71.8118   63.2075   44.0065 T1         2 LUT      0.095507
    233 H11        70.1118   61.0900   42.8142 U9         2 LUT      0.068930
    234 H10        70.1338   62.6748   45.3759 U8         2 LUT      0.083911
    235 H1         87.1233   63.9779   30.7727 Q1         2 LUT      0.297311
@<TRIPOS>BOND
    1     6     1 1
    2     7     2 1
    3     8     3 1
    4     9     4 1
    5    11     4 1
    6    12     6 1
    7    13     9 1
    8    16     9 1
    9    25     5 1
   10    25    16 1
   11    26    10 1
   12    26    17 1
   13    27    18 1
   14    28    14 1
   15    28    19 1
   16    29    12 1
   17    30    13 1
   18    31    24 1
   19    32     1 1
   20    32    25 1
   21    33    21 1
   22    33    26 1
   23    34    22 1
   24    34    27 1
   25    35    23 1
   26    35    28 1
   27    36    12 1
   28    36    24 1
   29    37    13 1
   30    37    15 1
   31    38    31 1
   32    39    20 1
   33    39    32 1
   34    40     2 1
   35    40    33 1
   36    41     3 1
   37    41    34 1
   38    42     4 1
   39    42    35 1
   40    43    38 1
   41    44     5 1
   42    44    17 1
   43    44    39 1
   44    45    10 1
   45    45    18 1
   46    45    40 1
   47    46    19 1
   48    46    41 1
   49    47    14 1
   50    47    16 1
   51    47    42 1
   52    48    38 1
   53    49    48 1
   54    50    49 1
   55    51    50 1
   56    52    51 1
   57    53    51 1
   58    54    53 1
   59    55    54 1
   60    56    55 1
   61    57    56 1
   62    58    56 1
   63    59    58 1
   64    60    59 1
   65    61    60 1
   66    62    61 1
   67    63    61 1
   68    64    27 1
   69    64    46 1
   70    65     5 1
   71    65    10 1
   72    65    64 1
   73    65    14 1
   74    66    23 1
   75    67    23 1
   76    68    23 1
   77    69    22 1
   78    70    22 1
   79    71    22 1
   80    72    21 1
   81    73    21 1
   82    74    21 1
   83    75    20 1
   84    76    20 1
   85    77    20 1
   86    78    15 1
   87    79    15 1
   88    80    15 1
   89    81     8 1
   90    82     8 1
   91    83     8 1
   92    84     7 1
   93    85     7 1
   94    86     6 1
   95    87     6 1
   96    88     3 1
   97    89     3 1
   98    90     1 1
   99    91     1 1
  100    92    63 1
  101    93    63 1
  102    94    63 1
  103    95    62 1
  104    96    62 1
  105    97    62 1
  106    98    60 1
  107    99    60 1
  108   100    59 1
  109   101    59 1
  110   102    58 1
  111   103    58 1
  112   104    57 1
  113   105    57 1
  114   106    57 1
  115   107    55 1
  116   108    55 1
  117   109    54 1
  118   110    54 1
  119   111    53 1
  120   112    53 1
  121   113    19 1
  122   114    18 1
  123   115    17 1
  124   116     9 1
  125   117     2 1
  126   118    52 1
  127   119    52 1
  128   120    52 1
  129   121    51 1
  130   122    50 1
  131   123    50 1
  132   124    49 1
  133   125    49 1
  134   126    48 1
  135   127    48 1
  136   128    43 1
  137   129    43 1
  138   130    43 1
  139   131    39 1
  140   132    32 1
  141   133    31 1
  142   134    61 1
  143   135    56 1
  144   136    24 1
  145   137    24 1
  146   139   138 1
  147   140   139 1
  148   141   140 1
  149   142   140 1
  150   143   142 1
  151   144   138 1
  152   144   143 1
  153   145   144 1
  154   146   145 1
  155   147   146 1
  156   148   147 1
  157   149   148 1
  158   150   149 1
  159   151   150 1
  160   152   151 1
  161   153   152 1
  162   154   138 1
  163   155   138 1
  164   156   143 1
  165   157   147 1
  166   158   151 1
  167   160   159 1
  168   161   160 1
  169   162   161 1
  170   163   161 1
  171   164   163 1
  172   165   159 1
  173   165   164 1
  174   166   165 1
  175   167   166 1
  176   168   167 1
  177   169   168 1
  178   170   169 1
  179   171   170 1
  180   172   171 1
  181   173   172 1
  182   174   153 1
  183   174   173 1
  184   175   159 1
  185   176   159 1
  186   177   164 1
  187   178   168 1
  188   179   172 1
  189   180   179 1
  190   181   179 1
  191   182   179 1
  192   183   178 1
  193   184   178 1
  194   185   178 1
  195   186   177 1
  196   187   177 1
  197   188   177 1
  198   189   176 1
  199   190   176 1
  200   191   176 1
  201   192   175 1
  202   193   175 1
  203   194   175 1
  204   195   160 1
  205   196   160 1
  206   197   158 1
  207   198   158 1
  208   199   158 1
  209   200   157 1
  210   201   157 1
  211   202   157 1
  212   203   156 1
  213   204   156 1
  214   205   156 1
  215   206   155 1
  216   207   155 1
  217   208   155 1
  218   209   154 1
  219   210   154 1
  220   211   154 1
  221   212   141 1
  222   213   146 1
  223   214   145 1
  224   215   142 1
  225   216   142 1
  226   217   174 1
  227   218   173 1
  228   219   171 1
  229   220   170 1
  230   221   169 1
  231   222   140 1
  232   223   167 1
  233   224   166 1
  234   225   165 1
  235   226   163 1
  236   227   161 1
  237   228   139 1
  238   229   139 1
  239   230   153 1
  240   231   152 1
  241   232   150 1
  242   233   149 1
  243   234   148 1
  244   235   162 1
  245   65    153 1
  246   65    174 1
@<TRIPOS>SUBSTRUCTURE
      1 CLA               1 ****               0 ****  **** 
      2 LUT             138 ****               0 ****  **** 
