@<TRIPOS>MOLECULE
Cpptraj generated mol2 file.
  235   246     2     0     0
SMALL
USER_CHARGES


@<TRIPOS>ATOM
      1 CAA        79.4721   59.7783   33.1918 a2         1 CLA     -0.055900
      2 CAB        79.2740   62.8844   42.3132 c8         1 CLA     -0.148500
      3 CAC        72.5071   58.6794   41.6902 a2         1 CLA     -0.012600
      4 CAD        75.6350   56.5449   34.1759 ck         1 CLA      0.398800
      5 NA         78.6308   59.6416   36.5422 ns         1 CLA     -0.225500
      6 CBA        80.6628   59.7306   32.2122 a2         1 CLA     -0.135000
      7 CBB        80.3862   63.2798   42.9970 c0         1 CLA     -0.395200
      8 CBC        72.6600   57.2675   42.2593 a3         1 CLA     -0.037700
      9 CBD        77.0589   57.2744   33.8140 a1         1 CLA     -0.053900
     10 NB         78.2972   60.9958   39.1635 nm         1 CLA     -0.295700
     11 OBD        74.9085   55.9381   33.3720 o2         1 CLA     -0.494600
     12 CGA        81.2561   58.3766   31.8320 c4         1 CLA      0.827000
     13 CGD        78.1755   56.3001   33.4555 c4         1 CLA      0.655300
     14 ND         76.0554   58.3019   37.2265 nm         1 CLA     -0.291600
     15 CED        79.2643   54.2517   34.1608 a3         1 CLA      0.005400
     16 CHA        77.3502   58.1092   35.1198 cs         1 CLA     -0.123800
     17 CHB        80.2426   61.1929   37.6420 aa         1 CLA     -0.291900
     18 CHC        76.8245   61.2820   41.1362 aa         1 CLA     -0.090400
     19 CHD        74.0065   58.1628   38.7230 aa         1 CLA     -0.052000
     20 CMA        82.0716   59.3185   35.8612 a3         1 CLA     -0.230700
     21 CMB        81.5322   62.7647   39.8074 a3         1 CLA     -0.180800
     22 CMC        74.2641   60.9376   43.1045 a3         1 CLA     -0.134000
     23 CMD        72.8786   56.3430   36.4109 a3         1 CLA     -0.141100
     24 C1         82.0837   56.2501   32.6863 a2         1 CLA      0.023000
     25 C1A        78.4820   58.9453   35.3547 ac         1 CLA     -0.015100
     26 C1B        79.5440   61.4695   38.8370 cr         1 CLA      0.054700
     27 C1C        75.7279   60.5064   40.9239 cn         1 CLA     -0.005600
     28 C1D        74.7387   57.8443   37.5461 ap         1 CLA     -0.047300
     29 O1A        81.1108   57.8214   30.7186 o2         1 CLA     -0.610800
     30 O1D        78.7393   56.3163   32.3535 o2         1 CLA     -0.558200
     31 C2         82.7169   55.8199   33.9767 c8         1 CLA     -0.325100
     32 C2A        79.7728   59.1304   34.5787 a1         1 CLA      0.098600
     33 C2B        80.1631   62.2239   39.8948 cb         1 CLA      0.088500
     34 C2C        74.5234   60.2871   41.7794 cb         1 CLA      0.053700
     35 C2D        74.2649   56.9599   36.5237 cb         1 CLA      0.058900
     36 O2A        81.6476   57.6180   32.9191 o1         1 CLA     -0.437200
     37 O2D        78.5045   55.4673   34.4927 o1         1 CLA     -0.357600
     38 C3         83.7574   54.9283   34.0735 c5         1 CLA      0.031200
     39 C3A        80.7552   60.0272   35.4141 a1         1 CLA      0.166800
     40 C3B        79.1352   62.2793   40.8939 cb         1 CLA      0.035000
     41 C3C        73.7583   59.3092   41.1052 cb         1 CLA     -0.089900
     42 C3D        75.3142   56.9935   35.5518 cb         1 CLA     -0.035900
     43 C4         83.6310   53.3556   34.1752 a3         1 CLA     -0.053300
     44 C4A        79.8322   60.3509   36.5685 ac         1 CLA      0.001800
     45 C4B        78.0063   61.5224   40.4152 cn         1 CLA     -0.020900
     46 C4C        74.4231   59.0058   39.8340 cr         1 CLA     -0.044400
     47 C4D        76.3057   57.8675   35.9674 c6         1 CLA     -0.046000
     48 C5         85.1537   55.4551   34.1136 a2         1 CLA     -0.070400
     49 C6         85.4901   56.7757   34.8696 a2         1 CLA      0.043900
     50 C7         85.2279   56.7738   36.3555 a2         1 CLA     -0.150000
     51 C8         85.5927   58.0743   37.2545 a1         1 CLA      0.064200
     52 C9         87.0662   58.1473   37.1914 a3         1 CLA     -0.259300
     53 C10        85.0373   57.7669   38.7132 a2         1 CLA     -0.071900
     54 C11        85.0036   58.9601   39.6365 a2         1 CLA      0.014500
     55 C12        84.2094   58.7751   40.9604 a2         1 CLA     -0.112100
     56 C13        83.8644   60.0533   41.7391 a1         1 CLA      0.089200
     57 C14        85.1602   60.8500   42.1211 a3         1 CLA     -0.239100
     58 C15        83.0862   59.7874   43.0364 a2         1 CLA     -0.102200
     59 C16        81.4912   59.5984   42.8018 a2         1 CLA      0.023900
     60 C17        80.6476   59.7386   44.1680 a2         1 CLA     -0.105700
     61 C18        79.1432   59.5996   44.0198 a1         1 CLA      0.206800
     62 C19        78.6653   58.1544   43.7140 a3         1 CLA     -0.280100
     63 C20        78.3042   60.2502   45.2043 a3         1 CLA     -0.280100
     64 NC         75.6385   59.7205   39.8232 nx         1 CLA     -0.309200
     65 MG         77.1145   59.7704   38.1382 mg         1 CLA      0.895000
     66 HMD3       72.7701   55.5464   37.1683 dc         1 CLA      0.064300
     67 HMD2       72.0559   57.0323   36.5881 dc         1 CLA      0.064300
     68 HMD1       72.8212   55.7433   35.4727 dc         1 CLA      0.064300
     69 HMC3       75.1502   61.6097   43.2560 dc         1 CLA      0.052100
     70 HMC2       73.3324   61.5394   43.0593 dc         1 CLA      0.052100
     71 HMC1       74.2351   60.1725   43.8651 dc         1 CLA      0.052100
     72 HMB3       82.1987   62.3783   39.0377 dc         1 CLA      0.063600
     73 HMB2       81.5059   63.8604   39.7627 dc         1 CLA      0.063600
     74 HMB1       81.9425   62.4656   40.8236 dc         1 CLA      0.063600
     75 HMA3       81.8375   58.4732   36.5545 dc         1 CLA      0.058300
     76 HMA2       82.3617   58.6909   35.0685 dc         1 CLA      0.058300
     77 HMA1       82.9096   60.0047   36.1452 dc         1 CLA      0.058300
     78 HED3       80.3610   54.4635   34.2670 dc         1 CLA      0.079300
     79 HED2       79.0589   53.4314   34.8364 dc         1 CLA      0.079300
     80 HED1       79.0592   53.7370   33.1958 dc         1 CLA      0.079300
     81 HBC3       71.7607   56.7843   42.6540 dc         1 CLA      0.016300
     82 HBC2       73.1319   56.5741   41.4832 dc         1 CLA      0.016300
     83 HBC1       73.3557   57.2103   43.1302 dc         1 CLA      0.016300
     84 HBB2       80.2545   63.6970   43.9756 da         1 CLA      0.183000
     85 HBB1       81.3890   63.1275   42.4902 da         1 CLA      0.183000
     86 HBA2       80.3368   60.1149   31.2639 dc         1 CLA      0.029400
     87 HBA1       81.5405   60.2728   32.5413 dc         1 CLA      0.029400
     88 HAC2       72.0750   59.3035   42.4090 dc         1 CLA      0.029300
     89 HAC1       71.7956   58.5225   40.8936 dc         1 CLA      0.029300
     90 HAA2       78.7192   59.2127   32.7527 dc         1 CLA      0.028700
     91 HAA1       79.1992   60.7543   33.2985 dc         1 CLA      0.028700
     92 H203       78.4068   61.3307   45.0521 dc         1 CLA      0.065600
     93 H202       77.2969   60.0042   45.0386 dc         1 CLA      0.065600
     94 H201       78.5695   59.8336   46.1407 dc         1 CLA      0.065600
     95 H193       77.6373   58.2149   43.5296 dc         1 CLA      0.065600
     96 H192       79.2935   57.5117   43.0351 dc         1 CLA      0.065600
     97 H191       78.7536   57.7400   44.7433 dc         1 CLA      0.065600
     98 H172       81.0542   58.9946   44.8654 dc         1 CLA      0.027600
     99 H171       80.9421   60.6948   44.5388 dc         1 CLA      0.027600
    100 H162       81.1976   60.4139   42.1752 dc         1 CLA      0.002900
    101 H161       81.4251   58.6370   42.3657 dc         1 CLA      0.002900
    102 H152       83.6126   58.9804   43.6060 dc         1 CLA      0.029100
    103 H151       83.1120   60.6350   43.6585 dc         1 CLA      0.029100
    104 H143       84.8317   61.5306   42.9021 dc         1 CLA      0.063600
    105 H142       85.9431   60.1597   42.3041 dc         1 CLA      0.063600
    106 H141       85.4277   61.4354   41.2724 dc         1 CLA      0.063600
    107 H122       83.2989   58.2078   40.9251 dc         1 CLA      0.032500
    108 H121       84.8246   58.1911   41.5947 dc         1 CLA      0.032500
    109 H112       86.0180   59.3063   40.0032 dc         1 CLA      0.006600
    110 H111       84.5488   59.8239   39.1064 dc         1 CLA      0.006600
    111 H102       84.0353   57.4680   38.5357 dc         1 CLA      0.024100
    112 H101       85.6365   56.9486   39.0369 dc         1 CLA      0.024100
    113 HHD        72.9811   57.7721   38.8767 da         1 CLA      0.174300
    114 HHC        76.8112   61.7503   42.0664 da         1 CLA      0.136800
    115 HHB        81.2438   61.6170   37.5517 da         1 CLA      0.138300
    116 HBD        76.8925   58.0702   33.0487 dc         1 CLA      0.107700
    117 HAB        78.3431   63.0278   42.8647 da         1 CLA      0.155200
    118 H93        87.4246   58.5552   36.2337 dc         1 CLA      0.069500
    119 H92        87.5194   58.9163   37.7805 dc         1 CLA      0.069500
    120 H91        87.5442   57.2358   37.5124 dc         1 CLA      0.069500
    121 H8         85.1976   59.0532   36.9011 dc         1 CLA      0.029300
    122 H72        84.1994   56.5218   36.5443 dc         1 CLA      0.044400
    123 H71        85.8235   56.0071   36.8227 dc         1 CLA      0.044400
    124 H62        86.5354   57.0696   34.7014 dc         1 CLA      0.015600
    125 H61        84.8699   57.6200   34.4553 dc         1 CLA      0.015600
    126 H52        85.8000   54.6912   34.5752 dc         1 CLA      0.033200
    127 H51        85.4138   55.5740   33.0142 dc         1 CLA      0.033200
    128 H43        84.3690   52.9837   33.4258 dc         1 CLA      0.037000
    129 H42        83.9121   53.0282   35.1829 dc         1 CLA      0.037000
    130 H41        82.6353   52.9884   33.9291 dc         1 CLA      0.037000
    131 H3A        80.9234   60.9597   34.8796 dc         1 CLA      0.041100
    132 H2A        80.1537   58.1354   34.4308 dc         1 CLA      0.083100
    133 H2         82.3870   56.3272   34.8537 da         1 CLA      0.180900
    134 H18        78.8758   60.1178   43.0695 dc         1 CLA     -0.003900
    135 H13        83.1508   60.5851   41.1818 dc         1 CLA      0.019700
    136 H12        81.1944   55.5992   32.5190 dc         1 CLA      0.120400
    137 H11        82.7829   56.2598   31.8724 dc         1 CLA      0.120400
    138 C1         69.2467   62.2264   49.2841 Z1         2 LUT      0.509236
    139 C2         67.8595   62.0622   49.9780 Z2         2 LUT     -0.434695
    140 C3         66.9070   63.2148   50.2198 Z3         2 LUT      0.437453
    141 O3         66.5479   63.2524   51.6392 S1         2 LUT     -0.547129
    142 C4         67.5671   64.5145   49.6766 Z4         2 LUT     -0.468603
    143 C5         68.2725   64.3395   48.3771 Z5         2 LUT      0.279246
    144 C6         69.1011   63.2579   48.1839 Z6         2 LUT     -0.305473
    145 C7         69.6046   62.8294   46.8357 Z7         2 LUT      0.069402
    146 C8         70.5920   63.5201   46.0557 Z8         2 LUT     -0.191631
    147 C9         71.2640   63.2118   44.8004 Z9         2 LUT      0.196698
    148 C10        72.2172   64.0307   44.2926 Y1         2 LUT     -0.208611
    149 C11        72.9053   63.9924   43.0723 Y2         2 LUT      0.030784
    150 C12        73.9594   64.7512   42.6305 Y3         2 LUT     -0.220316
    151 C13        74.8048   64.6655   41.4172 Y4         2 LUT      0.215937
    152 C14        75.8331   65.5701   41.2638 Y5         2 LUT     -0.185793
    153 C15        76.8591   65.5345   40.2619 Y6         2 LUT     -0.057835
    154 C16        69.8715   60.8388   49.0236 Y7         2 LUT     -0.405615
    155 C17        70.2591   62.6643   50.3978 Y7         2 LUT     -0.405615
    156 C18        67.8293   65.2928   47.2188 Y9         2 LUT     -0.369639
    157 C19        70.8284   61.8867   44.2215 W1         2 LUT     -0.333362
    158 C20        74.4139   63.6517   40.3231 W2         2 LUT     -0.323439
    159 C21        88.4437   66.6810   34.5657 Z1         2 LUT      0.406104
    160 C22        89.4116   66.3929   33.4157 Z2         2 LUT     -0.404965
    161 C23        89.5708   67.3779   32.2548 Z3         2 LUT      0.391255
    162 O23        90.2457   66.7121   31.2440 S1         2 LUT     -0.528210
    163 C24        88.2330   68.0327   31.9916 W6         2 LUT     -0.258361
    164 C25        87.1698   68.1246   32.7648 Z5         2 LUT      0.133546
    165 C26        87.0780   67.2377   34.0117 W8         2 LUT     -0.147008
    166 C27        86.2960   68.0167   35.0116 Z7         2 LUT      0.023843
    167 C28        85.3017   67.5164   35.7176 Z8         2 LUT     -0.216987
    168 C29        84.5990   67.9020   36.9773 Z9         2 LUT      0.206524
    169 C30        83.4547   67.0593   37.2265 Y1         2 LUT     -0.215556
    170 C31        82.4666   67.1922   38.3553 Y2         2 LUT      0.025142
    171 C32        81.4159   66.3525   38.6575 Y3         2 LUT     -0.212209
    172 C33        80.4462   66.6259   39.7591 Y4         2 LUT      0.240937
    173 C34        79.2439   65.8622   39.6860 Y5         2 LUT     -0.218862
    174 C35        78.1261   66.0164   40.5730 Y6         2 LUT     -0.023547
    175 C36        89.1491   67.7852   35.3886 Y7         2 LUT     -0.393485
    176 C37        88.5424   65.3363   35.4386 Y7         2 LUT     -0.393485
    177 C38        85.9568   68.7228   32.2425 Y9         2 LUT     -0.387526
    178 C39        84.9325   69.1150   37.8193 W1         2 LUT     -0.322618
    179 C40        80.9094   67.4432   40.9372 W2         2 LUT     -0.358472
    180 H403       81.9981   67.6822   40.9879 R7         2 LUT      0.097720
    181 H402       80.2444   68.2499   41.1072 R7         2 LUT      0.097720
    182 H401       80.7409   66.8461   41.7913 R7         2 LUT      0.097720
    183 H393       85.5026   68.8383   38.7034 R4         2 LUT      0.082505
    184 H392       85.5167   69.8743   37.3648 R4         2 LUT      0.082505
    185 H391       84.0585   69.6706   38.0626 R4         2 LUT      0.082505
    186 H383       85.7565   69.6629   32.7334 R1         2 LUT      0.104030
    187 H382       85.9677   68.9356   31.1645 R1         2 LUT      0.104030
    188 H381       85.1161   68.0713   32.4076 R1         2 LUT      0.104030
    189 H373       87.9197   64.5298   34.9782 T4         2 LUT      0.089537
    190 H372       89.5961   65.0171   35.6084 T4         2 LUT      0.089537
    191 H371       88.1641   65.5623   36.3700 T4         2 LUT      0.089537
    192 H363       89.1304   68.7422   34.8862 T4         2 LUT      0.089537
    193 H362       88.5846   67.9526   36.2213 T4         2 LUT      0.089537
    194 H361       90.1830   67.4358   35.7145 T4         2 LUT      0.089537
    195 H222       90.4262   65.9315   33.6878 U2         2 LUT      0.127376
    196 H221       88.8582   65.5340   32.8572 U2         2 LUT      0.127376
    197 H203       75.2203   63.3204   39.6617 R7         2 LUT      0.087068
    198 H202       73.8091   62.7540   40.6935 R7         2 LUT      0.087068
    199 H201       73.6274   64.1363   39.7083 R7         2 LUT      0.087068
    200 H193       71.0645   60.9502   44.6468 R4         2 LUT      0.089716
    201 H192       69.8114   61.8335   43.9797 R4         2 LUT      0.089716
    202 H191       71.1509   61.7223   43.1614 R4         2 LUT      0.089716
    203 H183       66.8014   65.0744   46.8817 R1         2 LUT      0.094572
    204 H182       67.7664   66.3396   47.4664 R1         2 LUT      0.094572
    205 H181       68.4291   65.1673   46.3195 R1         2 LUT      0.094572
    206 H173       70.4611   61.9247   51.2393 T4         2 LUT      0.093752
    207 H172       71.2451   62.8267   50.0404 T4         2 LUT      0.093752
    208 H171       69.8911   63.5007   50.9819 T4         2 LUT      0.093752
    209 H163       69.1314   60.1186   48.7059 T4         2 LUT      0.093752
    210 H162       70.6370   60.9355   48.3345 T4         2 LUT      0.093752
    211 H161       70.3929   60.3725   49.9089 T4         2 LUT      0.093752
    212 HO3        67.1606   63.6390   52.2180 Q1         2 LUT      0.300121
    213 H8         70.8908   64.4466   46.5129 U7         2 LUT      0.080784
    214 H7         69.3406   61.8683   46.5342 U6         2 LUT      0.042190
    215 H42        66.6730   65.1849   49.6407 U5         2 LUT      0.145166
    216 H41        68.2202   64.9656   50.4329 U5         2 LUT      0.145166
    217 H35        78.1952   66.4331   41.6078 T3         2 LUT      0.077919
    218 H34        78.9878   65.3706   38.7743 T2         2 LUT      0.073626
    219 H32        81.0484   65.5760   38.0255 T1         2 LUT      0.092510
    220 H31        82.8054   67.9582   39.1249 U9         2 LUT      0.070048
    221 H30        83.2075   66.2853   36.5108 U8         2 LUT      0.085442
    222 H3         65.9641   63.0601   49.6783 U3         2 LUT     -0.031596
    223 H28        84.8202   66.7079   35.2237 U7         2 LUT      0.084728
    224 H27        86.7464   68.8666   35.5105 U6         2 LUT      0.087291
    225 H26        86.4165   66.4323   33.7594 Q6         2 LUT      0.075325
    226 H24        88.1569   68.4836   31.0478 Q5         2 LUT      0.094482
    227 H23        90.3535   68.0815   32.6155 U3         2 LUT     -0.024869
    228 H22        67.2387   61.3933   49.3531 U2         2 LUT      0.127376
    229 H21        67.8749   61.4853   50.8657 U2         2 LUT      0.127376
    230 H15        76.6304   65.1849   39.2284 T3         2 LUT      0.093200
    231 H14        75.8471   66.3879   42.0601 T2         2 LUT      0.068865
    232 H12        74.2724   65.5073   43.3597 T1         2 LUT      0.095507
    233 H11        72.6111   63.2524   42.3794 U9         2 LUT      0.068930
    234 H10        72.3918   64.9209   44.9036 U8         2 LUT      0.083911
    235 H1         89.8254   66.5808   30.3630 Q1         2 LUT      0.297311
@<TRIPOS>BOND
    1     6     1 1
    2     7     2 1
    3     8     3 1
    4     9     4 1
    5    11     4 1
    6    12     6 1
    7    13     9 1
    8    16     9 1
    9    25     5 1
   10    25    16 1
   11    26    10 1
   12    26    17 1
   13    27    18 1
   14    28    14 1
   15    28    19 1
   16    29    12 1
   17    30    13 1
   18    31    24 1
   19    32     1 1
   20    32    25 1
   21    33    21 1
   22    33    26 1
   23    34    22 1
   24    34    27 1
   25    35    23 1
   26    35    28 1
   27    36    12 1
   28    36    24 1
   29    37    13 1
   30    37    15 1
   31    38    31 1
   32    39    20 1
   33    39    32 1
   34    40     2 1
   35    40    33 1
   36    41     3 1
   37    41    34 1
   38    42     4 1
   39    42    35 1
   40    43    38 1
   41    44     5 1
   42    44    17 1
   43    44    39 1
   44    45    10 1
   45    45    18 1
   46    45    40 1
   47    46    19 1
   48    46    41 1
   49    47    14 1
   50    47    16 1
   51    47    42 1
   52    48    38 1
   53    49    48 1
   54    50    49 1
   55    51    50 1
   56    52    51 1
   57    53    51 1
   58    54    53 1
   59    55    54 1
   60    56    55 1
   61    57    56 1
   62    58    56 1
   63    59    58 1
   64    60    59 1
   65    61    60 1
   66    62    61 1
   67    63    61 1
   68    64    27 1
   69    64    46 1
   70    65     5 1
   71    65    10 1
   72    65    64 1
   73    65    14 1
   74    66    23 1
   75    67    23 1
   76    68    23 1
   77    69    22 1
   78    70    22 1
   79    71    22 1
   80    72    21 1
   81    73    21 1
   82    74    21 1
   83    75    20 1
   84    76    20 1
   85    77    20 1
   86    78    15 1
   87    79    15 1
   88    80    15 1
   89    81     8 1
   90    82     8 1
   91    83     8 1
   92    84     7 1
   93    85     7 1
   94    86     6 1
   95    87     6 1
   96    88     3 1
   97    89     3 1
   98    90     1 1
   99    91     1 1
  100    92    63 1
  101    93    63 1
  102    94    63 1
  103    95    62 1
  104    96    62 1
  105    97    62 1
  106    98    60 1
  107    99    60 1
  108   100    59 1
  109   101    59 1
  110   102    58 1
  111   103    58 1
  112   104    57 1
  113   105    57 1
  114   106    57 1
  115   107    55 1
  116   108    55 1
  117   109    54 1
  118   110    54 1
  119   111    53 1
  120   112    53 1
  121   113    19 1
  122   114    18 1
  123   115    17 1
  124   116     9 1
  125   117     2 1
  126   118    52 1
  127   119    52 1
  128   120    52 1
  129   121    51 1
  130   122    50 1
  131   123    50 1
  132   124    49 1
  133   125    49 1
  134   126    48 1
  135   127    48 1
  136   128    43 1
  137   129    43 1
  138   130    43 1
  139   131    39 1
  140   132    32 1
  141   133    31 1
  142   134    61 1
  143   135    56 1
  144   136    24 1
  145   137    24 1
  146   139   138 1
  147   140   139 1
  148   141   140 1
  149   142   140 1
  150   143   142 1
  151   144   138 1
  152   144   143 1
  153   145   144 1
  154   146   145 1
  155   147   146 1
  156   148   147 1
  157   149   148 1
  158   150   149 1
  159   151   150 1
  160   152   151 1
  161   153   152 1
  162   154   138 1
  163   155   138 1
  164   156   143 1
  165   157   147 1
  166   158   151 1
  167   160   159 1
  168   161   160 1
  169   162   161 1
  170   163   161 1
  171   164   163 1
  172   165   159 1
  173   165   164 1
  174   166   165 1
  175   167   166 1
  176   168   167 1
  177   169   168 1
  178   170   169 1
  179   171   170 1
  180   172   171 1
  181   173   172 1
  182   174   153 1
  183   174   173 1
  184   175   159 1
  185   176   159 1
  186   177   164 1
  187   178   168 1
  188   179   172 1
  189   180   179 1
  190   181   179 1
  191   182   179 1
  192   183   178 1
  193   184   178 1
  194   185   178 1
  195   186   177 1
  196   187   177 1
  197   188   177 1
  198   189   176 1
  199   190   176 1
  200   191   176 1
  201   192   175 1
  202   193   175 1
  203   194   175 1
  204   195   160 1
  205   196   160 1
  206   197   158 1
  207   198   158 1
  208   199   158 1
  209   200   157 1
  210   201   157 1
  211   202   157 1
  212   203   156 1
  213   204   156 1
  214   205   156 1
  215   206   155 1
  216   207   155 1
  217   208   155 1
  218   209   154 1
  219   210   154 1
  220   211   154 1
  221   212   141 1
  222   213   146 1
  223   214   145 1
  224   215   142 1
  225   216   142 1
  226   217   174 1
  227   218   173 1
  228   219   171 1
  229   220   170 1
  230   221   169 1
  231   222   140 1
  232   223   167 1
  233   224   166 1
  234   225   165 1
  235   226   163 1
  236   227   161 1
  237   228   139 1
  238   229   139 1
  239   230   153 1
  240   231   152 1
  241   232   150 1
  242   233   149 1
  243   234   148 1
  244   235   162 1
  245   65    153 1
  246   65    174 1
@<TRIPOS>SUBSTRUCTURE
      1 CLA               1 ****               0 ****  **** 
      2 LUT             138 ****               0 ****  **** 
