@<TRIPOS>MOLECULE
Cpptraj generated mol2 file.
  235   246     2     0     0
SMALL
USER_CHARGES


@<TRIPOS>ATOM
      1 CAA        78.0760   57.3836   34.6602 a2         1 CLA     -0.055900
      2 CAB        78.4428   61.9544   43.3321 c8         1 CLA     -0.148500
      3 CAC        71.4991   58.3099   43.4119 a2         1 CLA     -0.012600
      4 CAD        73.7399   55.4481   36.1557 ck         1 CLA      0.398800
      5 NA         77.1917   58.1837   38.0861 ns         1 CLA     -0.225500
      6 CBA        79.2584   57.0128   33.7251 a2         1 CLA     -0.135000
      7 CBB        79.5881   61.8637   44.0321 c0         1 CLA     -0.395200
      8 CBC        71.5864   56.8447   43.8460 a3         1 CLA     -0.037700
      9 CBD        75.2661   55.7620   35.7967 a1         1 CLA     -0.053900
     10 NB         77.1772   59.9794   40.4757 nm         1 CLA     -0.295700
     11 OBD        73.0552   54.5968   35.5578 o2         1 CLA     -0.494600
     12 CGA        79.4871   55.5918   33.5142 c4         1 CLA      0.827000
     13 CGD        76.1427   54.5419   35.7048 c4         1 CLA      0.655300
     14 ND         74.3553   57.6388   38.8309 nm         1 CLA     -0.291600
     15 CED        76.8514   52.5520   36.8571 a3         1 CLA      0.005400
     16 CHA        75.6787   56.7776   36.8415 cs         1 CLA     -0.123800
     17 CHB        79.0837   59.6329   38.8527 aa         1 CLA     -0.291900
     18 CHC        75.9795   60.5571   42.6555 aa         1 CLA     -0.090400
     19 CHD        72.6360   57.7601   40.5161 aa         1 CLA     -0.052000
     20 CMA        80.5512   57.3540   37.4050 a3         1 CLA     -0.230700
     21 CMB        80.4210   61.6862   40.5978 a3         1 CLA     -0.180800
     22 CMC        73.8886   60.2687   44.8682 a3         1 CLA     -0.134000
     23 CMD        71.1582   55.7706   38.6327 a3         1 CLA     -0.141100
     24 C1         80.3908   53.5876   34.5837 a2         1 CLA      0.023000
     25 C1A        76.9686   57.3971   37.0037 ac         1 CLA     -0.015100
     26 C1B        78.4455   60.2627   40.0100 cr         1 CLA      0.054700
     27 C1C        74.8547   59.7898   42.4868 cn         1 CLA     -0.005600
     28 C1D        73.0852   57.3209   39.2819 ap         1 CLA     -0.047300
     29 O1A        79.0838   54.8997   32.6067 o2         1 CLA     -0.610800
     30 O1D        77.1345   54.5003   34.9997 o2         1 CLA     -0.558200
     31 C2         80.7552   53.0866   35.9673 c8         1 CLA     -0.325100
     32 C2A        78.2388   57.2120   36.1680 a1         1 CLA      0.098600
     33 C2B        79.1688   61.1122   40.9175 cb         1 CLA      0.088500
     34 C2C        73.8130   59.5831   43.4644 cb         1 CLA      0.053700
     35 C2D        72.4449   56.4506   38.3456 cb         1 CLA      0.058900
     36 O2A        80.2572   55.0434   34.5245 o1         1 CLA     -0.437200
     37 O2D        75.9203   53.5558   36.6438 o1         1 CLA     -0.357600
     38 C3         81.6786   52.1393   36.2477 c5         1 CLA      0.031200
     39 C3A        79.2846   58.0911   36.9307 a1         1 CLA      0.166800
     40 C3B        78.3053   61.3206   42.0093 cb         1 CLA      0.035000
     41 C3C        72.7965   58.8447   42.7985 cb         1 CLA     -0.089900
     42 C3D        73.4245   56.2567   37.3386 cb         1 CLA     -0.035900
     43 C4         81.2441   50.6887   36.4735 a3         1 CLA     -0.053300
     44 C4A        78.4690   58.6743   38.0304 ac         1 CLA      0.001800
     45 C4B        77.0849   60.6449   41.7235 cn         1 CLA     -0.020900
     46 C4C        73.2452   58.5438   41.5094 cr         1 CLA     -0.044400
     47 C4D        74.6028   56.9489   37.6882 c6         1 CLA     -0.046000
     48 C5         83.1100   52.5228   36.6956 a2         1 CLA     -0.070400
     49 C6         83.4011   53.8023   37.4781 a2         1 CLA      0.043900
     50 C7         84.9196   53.8975   37.7076 a2         1 CLA     -0.150000
     51 C8         85.4998   55.1367   38.3701 a1         1 CLA      0.064200
     52 C9         87.0264   55.2162   38.2192 a3         1 CLA     -0.259300
     53 C10        85.0532   55.2169   39.9775 a2         1 CLA     -0.071900
     54 C11        83.5939   55.5114   40.3316 a2         1 CLA      0.014500
     55 C12        83.3894   56.3028   41.6239 a2         1 CLA     -0.112100
     56 C13        81.8906   56.7783   42.0901 a1         1 CLA      0.089200
     57 C14        81.2308   57.8334   41.1723 a3         1 CLA     -0.239100
     58 C15        81.8274   57.1993   43.5860 a2         1 CLA     -0.102200
     59 C16        82.7650   58.3936   43.8848 a2         1 CLA      0.023900
     60 C17        82.4097   59.0368   45.1903 a2         1 CLA     -0.105700
     61 C18        83.2434   60.3043   45.5937 a1         1 CLA      0.206800
     62 C19        82.5479   61.0750   46.6636 a3         1 CLA     -0.280100
     63 C20        84.6859   59.9034   46.2003 a3         1 CLA     -0.280100
     64 NC         74.5120   59.1294   41.3376 nx         1 CLA     -0.309200
     65 MG         75.7292   58.8696   39.5934 mg         1 CLA      0.895000
     66 HMD3       71.1544   55.2063   39.6143 dc         1 CLA      0.064300
     67 HMD2       70.3256   56.4701   38.3879 dc         1 CLA      0.064300
     68 HMD1       71.0428   54.9815   37.8904 dc         1 CLA      0.064300
     69 HMC3       74.6758   59.7398   45.4232 dc         1 CLA      0.052100
     70 HMC2       74.0983   61.3596   44.8637 dc         1 CLA      0.052100
     71 HMC1       72.8804   60.0981   45.3882 dc         1 CLA      0.052100
     72 HMB3       80.4221   61.9032   39.5375 dc         1 CLA      0.063600
     73 HMB2       80.6562   62.5385   41.2138 dc         1 CLA      0.063600
     74 HMB1       81.1651   60.9479   40.9095 dc         1 CLA      0.063600
     75 HMA3       81.3390   58.0326   37.6453 dc         1 CLA      0.058300
     76 HMA2       80.2783   56.7980   38.2629 dc         1 CLA      0.058300
     77 HMA1       80.9482   56.7089   36.5535 dc         1 CLA      0.058300
     78 HED3       76.6712   52.2545   37.9008 dc         1 CLA      0.079300
     79 HED2       76.8804   51.7249   36.1574 dc         1 CLA      0.079300
     80 HED1       77.8310   52.9907   36.7758 dc         1 CLA      0.079300
     81 HBC3       70.7856   56.5361   44.4931 dc         1 CLA      0.016300
     82 HBC2       71.8167   56.1705   43.0473 dc         1 CLA      0.016300
     83 HBC1       72.4943   56.8227   44.4617 dc         1 CLA      0.016300
     84 HBB2       79.8245   62.3434   45.0022 da         1 CLA      0.183000
     85 HBB1       80.4601   61.4681   43.5098 da         1 CLA      0.183000
     86 HBA2       79.0045   57.4267   32.8040 dc         1 CLA      0.029400
     87 HBA1       80.2123   57.5075   33.9897 dc         1 CLA      0.029400
     88 HAC2       71.2782   58.8267   44.3544 dc         1 CLA      0.029300
     89 HAC1       70.6860   58.3281   42.7038 dc         1 CLA      0.029300
     90 HAA2       77.1926   56.8745   34.3044 dc         1 CLA      0.028700
     91 HAA1       77.7600   58.3995   34.5048 dc         1 CLA      0.028700
     92 H203       85.3438   59.5397   45.3714 dc         1 CLA      0.065600
     93 H202       85.1584   60.8135   46.4831 dc         1 CLA      0.065600
     94 H201       84.6590   59.1841   47.0340 dc         1 CLA      0.065600
     95 H193       83.1891   61.5990   47.3579 dc         1 CLA      0.065600
     96 H192       82.0075   61.8785   46.1346 dc         1 CLA      0.065600
     97 H191       81.8728   60.3520   47.1045 dc         1 CLA      0.065600
     98 H172       81.3345   59.3222   45.0579 dc         1 CLA      0.027600
     99 H171       82.4093   58.2329   45.8948 dc         1 CLA      0.027600
    100 H162       83.7068   57.9146   43.9938 dc         1 CLA      0.002900
    101 H161       82.7114   59.2460   43.1918 dc         1 CLA      0.002900
    102 H152       80.8008   57.4935   43.7394 dc         1 CLA      0.029100
    103 H151       82.0259   56.4417   44.2444 dc         1 CLA      0.029100
    104 H143       81.9450   58.6813   40.9644 dc         1 CLA      0.063600
    105 H142       80.8430   57.3357   40.3527 dc         1 CLA      0.063600
    106 H141       80.4344   58.3310   41.7371 dc         1 CLA      0.063600
    107 H122       83.8301   55.8410   42.5033 dc         1 CLA      0.032500
    108 H121       84.0337   57.1701   41.4934 dc         1 CLA      0.032500
    109 H112       83.0581   56.0318   39.5141 dc         1 CLA      0.006600
    110 H111       83.0307   54.5739   40.4251 dc         1 CLA      0.006600
    111 H102       85.4398   54.4075   40.5612 dc         1 CLA      0.024100
    112 H101       85.6261   56.0210   40.4991 dc         1 CLA      0.024100
    113 HHD        71.6740   57.5021   40.7653 da         1 CLA      0.174300
    114 HHC        76.0485   60.9763   43.6110 da         1 CLA      0.136800
    115 HHB        80.1925   59.8823   38.7006 da         1 CLA      0.138300
    116 HBD        75.2655   56.2477   34.8396 dc         1 CLA      0.107700
    117 HAB        77.5849   62.4869   43.7793 da         1 CLA      0.155200
    118 H93        87.5543   54.3732   38.6466 dc         1 CLA      0.069500
    119 H92        87.4095   55.1254   37.1756 dc         1 CLA      0.069500
    120 H91        87.3078   56.1583   38.6424 dc         1 CLA      0.069500
    121 H8         85.0368   55.9916   37.9162 dc         1 CLA      0.029300
    122 H72        85.2425   53.0680   38.3206 dc         1 CLA      0.044400
    123 H71        85.4133   53.8634   36.7608 dc         1 CLA      0.044400
    124 H62        83.1111   54.6529   36.8283 dc         1 CLA      0.015600
    125 H61        82.8461   53.8269   38.4268 dc         1 CLA      0.015600
    126 H52        83.3997   51.6475   37.2803 dc         1 CLA      0.033200
    127 H51        83.5572   52.5646   35.7459 dc         1 CLA      0.033200
    128 H43        81.2980   50.1447   35.5923 dc         1 CLA      0.037000
    129 H42        81.7968   50.0537   37.2244 dc         1 CLA      0.037000
    130 H41        80.2107   50.7600   36.8453 dc         1 CLA      0.037000
    131 H3A        79.5242   58.9456   36.2194 dc         1 CLA      0.041100
    132 H2A        78.7182   56.2736   36.3607 dc         1 CLA      0.083100
    133 H2         80.3471   53.6646   36.8104 da         1 CLA      0.180900
    134 H18        83.3904   60.8991   44.6545 dc         1 CLA     -0.003900
    135 H13        81.2991   55.8320   42.0068 dc         1 CLA      0.019700
    136 H12        79.3949   53.2051   34.5115 dc         1 CLA      0.120400
    137 H11        81.0788   53.1430   33.8877 dc         1 CLA      0.120400
    138 C1         67.6231   61.2246   50.2788 Z1         2 LUT      0.509236
    139 C2         66.2489   60.8973   50.9305 Z2         2 LUT     -0.434695
    140 C3         65.3962   62.0126   51.3487 Z3         2 LUT      0.437453
    141 O3         65.6645   62.3501   52.7050 S1         2 LUT     -0.547129
    142 C4         65.6662   63.2627   50.4526 Z4         2 LUT     -0.468603
    143 C5         66.3961   62.9639   49.0487 Z5         2 LUT      0.279246
    144 C6         67.2847   62.0104   48.9643 Z6         2 LUT     -0.305473
    145 C7         67.7619   61.5290   47.6515 Z7         2 LUT      0.069402
    146 C8         68.6779   62.1402   46.9166 Z8         2 LUT     -0.191631
    147 C9         69.1898   61.7574   45.5672 Z9         2 LUT      0.196698
    148 C10        70.2069   62.5432   45.0692 Y1         2 LUT     -0.208611
    149 C11        71.0120   62.4770   43.8253 Y2         2 LUT      0.030784
    150 C12        72.0654   63.2301   43.6446 Y3         2 LUT     -0.220316
    151 C13        72.9650   63.1196   42.5034 Y4         2 LUT      0.215937
    152 C14        74.1811   63.8162   42.4981 Y5         2 LUT     -0.185793
    153 C15        75.2734   63.7842   41.5290 Y6         2 LUT     -0.057835
    154 C16        68.1694   59.8236   50.1344 Y7         2 LUT     -0.405615
    155 C17        68.5802   62.0111   51.2667 Y7         2 LUT     -0.405615
    156 C18        65.8543   63.7151   47.8419 Y9         2 LUT     -0.369639
    157 C19        68.6331   60.4673   44.8407 W1         2 LUT     -0.333362
    158 C20        72.5414   62.2652   41.3869 W2         2 LUT     -0.323439
    159 C21        86.7858   64.9131   35.3247 Z1         2 LUT      0.406104
    160 C22        87.5161   64.5155   34.0770 Z2         2 LUT     -0.404965
    161 C23        87.8413   65.6999   33.1853 Z3         2 LUT      0.391255
    162 O23        88.7903   65.2419   32.1371 S1         2 LUT     -0.528210
    163 C24        86.4551   66.3445   32.8638 W6         2 LUT     -0.258361
    164 C25        85.3508   66.3208   33.6468 Z5         2 LUT      0.133546
    165 C26        85.3871   65.3899   34.8522 W8         2 LUT     -0.147008
    166 C27        84.5732   66.0557   35.9790 Z7         2 LUT      0.023843
    167 C28        83.4923   65.5826   36.5918 Z8         2 LUT     -0.216987
    168 C29        82.7248   66.0888   37.7890 Z9         2 LUT      0.206524
    169 C30        81.7188   65.2670   38.3497 Y1         2 LUT     -0.215556
    170 C31        80.7544   65.6595   39.3822 Y2         2 LUT      0.025142
    171 C32        79.4964   65.1164   39.5818 Y3         2 LUT     -0.212209
    172 C33        78.6137   65.3379   40.7424 Y4         2 LUT      0.240937
    173 C34        77.4764   64.5458   40.7871 Y5         2 LUT     -0.218862
    174 C35        76.3829   64.6152   41.6728 Y6         2 LUT     -0.023547
    175 C36        87.5713   65.7803   36.3164 Y7         2 LUT     -0.393485
    176 C37        86.6773   63.6160   36.1974 Y7         2 LUT     -0.393485
    177 C38        84.0898   67.1680   33.4010 Y9         2 LUT     -0.387526
    178 C39        83.1226   67.3827   38.4011 W1         2 LUT     -0.322618
    179 C40        79.0474   66.3291   41.7365 W2         2 LUT     -0.358472
    180 H403       80.1314   66.2483   41.9745 R7         2 LUT      0.097720
    181 H402       79.0120   67.3776   41.4284 R7         2 LUT      0.097720
    182 H401       78.6463   66.1962   42.6667 R7         2 LUT      0.097720
    183 H393       83.7174   67.3642   39.3534 R4         2 LUT      0.082505
    184 H392       83.6541   68.0067   37.6410 R4         2 LUT      0.082505
    185 H391       82.1562   67.9175   38.5937 R4         2 LUT      0.082505
    186 H383       84.0812   68.0815   33.9370 R1         2 LUT      0.104030
    187 H382       83.9394   67.3226   32.3417 R1         2 LUT      0.104030
    188 H381       83.1360   66.7553   33.7578 R1         2 LUT      0.104030
    189 H373       87.6159   63.1983   36.4574 T4         2 LUT      0.089537
    190 H372       86.0829   63.7886   37.1543 T4         2 LUT      0.089537
    191 H371       86.2233   62.7871   35.6983 T4         2 LUT      0.089537
    192 H363       87.0011   65.9906   37.2742 T4         2 LUT      0.089537
    193 H362       88.5384   65.3146   36.6492 T4         2 LUT      0.089537
    194 H361       87.7077   66.7840   35.8832 T4         2 LUT      0.089537
    195 H222       88.4924   64.1476   34.3795 U2         2 LUT      0.127376
    196 H221       86.9160   63.6865   33.6023 U2         2 LUT      0.127376
    197 H203       72.3371   61.2078   41.6192 R7         2 LUT      0.087068
    198 H202       71.6401   62.5647   40.9757 R7         2 LUT      0.087068
    199 H201       73.1717   62.0782   40.6097 R7         2 LUT      0.087068
    200 H193       69.2194   60.1375   44.0019 R4         2 LUT      0.089716
    201 H192       68.6378   59.6882   45.5762 R4         2 LUT      0.089716
    202 H191       67.6683   60.7129   44.4817 R4         2 LUT      0.089716
    203 H183       66.1029   63.2688   46.9073 R1         2 LUT      0.094572
    204 H182       64.7994   63.8617   47.9777 R1         2 LUT      0.094572
    205 H181       66.3519   64.7285   47.9329 R1         2 LUT      0.094572
    206 H173       69.5901   62.2444   50.9443 T4         2 LUT      0.093752
    207 H172       68.1378   63.0131   51.4795 T4         2 LUT      0.093752
    208 H171       68.6260   61.5687   52.2324 T4         2 LUT      0.093752
    209 H163       68.7439   59.4219   50.9938 T4         2 LUT      0.093752
    210 H162       67.3640   59.1122   49.8075 T4         2 LUT      0.093752
    211 H161       68.9028   59.8393   49.3223 T4         2 LUT      0.093752
    212 HO3        65.1773   61.7973   53.3270 Q1         2 LUT      0.300121
    213 H8         69.1696   63.0400   47.3226 U7         2 LUT      0.080784
    214 H7         67.2104   60.6653   47.3619 U6         2 LUT      0.042190
    215 H42        64.7489   63.8629   50.3480 U5         2 LUT      0.145166
    216 H41        66.2779   64.0127   51.0301 U5         2 LUT      0.145166
    217 H35        76.4933   65.2248   42.5182 T3         2 LUT      0.077919
    218 H34        77.4862   63.6616   40.1049 T2         2 LUT      0.073626
    219 H32        79.2139   64.3586   38.8824 T1         2 LUT      0.092510
    220 H31        81.1934   66.4099   40.1174 U9         2 LUT      0.070048
    221 H30        81.3909   64.3564   37.8257 U8         2 LUT      0.085442
    222 H3         64.3227   61.8047   51.2094 U3         2 LUT     -0.031596
    223 H28        83.2199   64.6245   36.2259 U7         2 LUT      0.084728
    224 H27        84.8867   67.0097   36.3140 U6         2 LUT      0.087291
    225 H26        84.8579   64.4574   34.6716 Q6         2 LUT      0.075325
    226 H24        86.5086   67.0935   32.0973 Q5         2 LUT      0.094482
    227 H23        88.3876   66.4568   33.6681 U3         2 LUT     -0.024869
    228 H22        65.6471   60.2678   50.3155 U2         2 LUT      0.127376
    229 H21        66.3796   60.2220   51.7423 U2         2 LUT      0.127376
    230 H15        75.1790   63.0313   40.7544 T3         2 LUT      0.093200
    231 H14        74.5171   64.2472   43.3904 T2         2 LUT      0.068865
    232 H12        72.3326   63.8640   44.5180 T1         2 LUT      0.095507
    233 H11        70.5488   61.8080   43.1096 U9         2 LUT      0.068930
    234 H10        70.5866   63.2803   45.7815 U8         2 LUT      0.083911
    235 H1         88.2851   64.8442   31.3904 Q1         2 LUT      0.297311
@<TRIPOS>BOND
    1     6     1 1
    2     7     2 1
    3     8     3 1
    4     9     4 1
    5    11     4 1
    6    12     6 1
    7    13     9 1
    8    16     9 1
    9    25     5 1
   10    25    16 1
   11    26    10 1
   12    26    17 1
   13    27    18 1
   14    28    14 1
   15    28    19 1
   16    29    12 1
   17    30    13 1
   18    31    24 1
   19    32     1 1
   20    32    25 1
   21    33    21 1
   22    33    26 1
   23    34    22 1
   24    34    27 1
   25    35    23 1
   26    35    28 1
   27    36    12 1
   28    36    24 1
   29    37    13 1
   30    37    15 1
   31    38    31 1
   32    39    20 1
   33    39    32 1
   34    40     2 1
   35    40    33 1
   36    41     3 1
   37    41    34 1
   38    42     4 1
   39    42    35 1
   40    43    38 1
   41    44     5 1
   42    44    17 1
   43    44    39 1
   44    45    10 1
   45    45    18 1
   46    45    40 1
   47    46    19 1
   48    46    41 1
   49    47    14 1
   50    47    16 1
   51    47    42 1
   52    48    38 1
   53    49    48 1
   54    50    49 1
   55    51    50 1
   56    52    51 1
   57    53    51 1
   58    54    53 1
   59    55    54 1
   60    56    55 1
   61    57    56 1
   62    58    56 1
   63    59    58 1
   64    60    59 1
   65    61    60 1
   66    62    61 1
   67    63    61 1
   68    64    27 1
   69    64    46 1
   70    65     5 1
   71    65    10 1
   72    65    64 1
   73    65    14 1
   74    66    23 1
   75    67    23 1
   76    68    23 1
   77    69    22 1
   78    70    22 1
   79    71    22 1
   80    72    21 1
   81    73    21 1
   82    74    21 1
   83    75    20 1
   84    76    20 1
   85    77    20 1
   86    78    15 1
   87    79    15 1
   88    80    15 1
   89    81     8 1
   90    82     8 1
   91    83     8 1
   92    84     7 1
   93    85     7 1
   94    86     6 1
   95    87     6 1
   96    88     3 1
   97    89     3 1
   98    90     1 1
   99    91     1 1
  100    92    63 1
  101    93    63 1
  102    94    63 1
  103    95    62 1
  104    96    62 1
  105    97    62 1
  106    98    60 1
  107    99    60 1
  108   100    59 1
  109   101    59 1
  110   102    58 1
  111   103    58 1
  112   104    57 1
  113   105    57 1
  114   106    57 1
  115   107    55 1
  116   108    55 1
  117   109    54 1
  118   110    54 1
  119   111    53 1
  120   112    53 1
  121   113    19 1
  122   114    18 1
  123   115    17 1
  124   116     9 1
  125   117     2 1
  126   118    52 1
  127   119    52 1
  128   120    52 1
  129   121    51 1
  130   122    50 1
  131   123    50 1
  132   124    49 1
  133   125    49 1
  134   126    48 1
  135   127    48 1
  136   128    43 1
  137   129    43 1
  138   130    43 1
  139   131    39 1
  140   132    32 1
  141   133    31 1
  142   134    61 1
  143   135    56 1
  144   136    24 1
  145   137    24 1
  146   139   138 1
  147   140   139 1
  148   141   140 1
  149   142   140 1
  150   143   142 1
  151   144   138 1
  152   144   143 1
  153   145   144 1
  154   146   145 1
  155   147   146 1
  156   148   147 1
  157   149   148 1
  158   150   149 1
  159   151   150 1
  160   152   151 1
  161   153   152 1
  162   154   138 1
  163   155   138 1
  164   156   143 1
  165   157   147 1
  166   158   151 1
  167   160   159 1
  168   161   160 1
  169   162   161 1
  170   163   161 1
  171   164   163 1
  172   165   159 1
  173   165   164 1
  174   166   165 1
  175   167   166 1
  176   168   167 1
  177   169   168 1
  178   170   169 1
  179   171   170 1
  180   172   171 1
  181   173   172 1
  182   174   153 1
  183   174   173 1
  184   175   159 1
  185   176   159 1
  186   177   164 1
  187   178   168 1
  188   179   172 1
  189   180   179 1
  190   181   179 1
  191   182   179 1
  192   183   178 1
  193   184   178 1
  194   185   178 1
  195   186   177 1
  196   187   177 1
  197   188   177 1
  198   189   176 1
  199   190   176 1
  200   191   176 1
  201   192   175 1
  202   193   175 1
  203   194   175 1
  204   195   160 1
  205   196   160 1
  206   197   158 1
  207   198   158 1
  208   199   158 1
  209   200   157 1
  210   201   157 1
  211   202   157 1
  212   203   156 1
  213   204   156 1
  214   205   156 1
  215   206   155 1
  216   207   155 1
  217   208   155 1
  218   209   154 1
  219   210   154 1
  220   211   154 1
  221   212   141 1
  222   213   146 1
  223   214   145 1
  224   215   142 1
  225   216   142 1
  226   217   174 1
  227   218   173 1
  228   219   171 1
  229   220   170 1
  230   221   169 1
  231   222   140 1
  232   223   167 1
  233   224   166 1
  234   225   165 1
  235   226   163 1
  236   227   161 1
  237   228   139 1
  238   229   139 1
  239   230   153 1
  240   231   152 1
  241   232   150 1
  242   233   149 1
  243   234   148 1
  244   235   162 1
  245   65    153 1
  246   65    174 1
@<TRIPOS>SUBSTRUCTURE
      1 CLA               1 ****               0 ****  **** 
      2 LUT             138 ****               0 ****  **** 
