@<TRIPOS>MOLECULE
Cpptraj generated mol2 file.
  235   246     2     0     0
SMALL
USER_CHARGES


@<TRIPOS>ATOM
      1 CAA        79.3417   59.2215   33.7516 a2         1 CLA     -0.055900
      2 CAB        79.6593   62.5290   43.1030 c8         1 CLA     -0.148500
      3 CAC        72.7192   58.3030   42.5894 a2         1 CLA     -0.012600
      4 CAD        75.2476   56.5296   34.9451 ck         1 CLA      0.398800
      5 NA         78.4711   59.3528   37.3930 ns         1 CLA     -0.225500
      6 CBA        80.6062   59.1653   32.9343 a2         1 CLA     -0.135000
      7 CBB        80.8135   62.8547   43.7876 c0         1 CLA     -0.395200
      8 CBC        72.6788   56.8685   43.1246 a3         1 CLA     -0.037700
      9 CBD        76.6892   57.0876   34.6852 a1         1 CLA     -0.053900
     10 NB         78.5384   60.6010   40.1050 nm         1 CLA     -0.295700
     11 OBD        74.5882   55.8141   34.2034 o2         1 CLA     -0.494600
     12 CGA        81.2652   57.8381   32.5713 c4         1 CLA      0.827000
     13 CGD        77.6044   55.9818   34.0909 c4         1 CLA      0.655300
     14 ND         75.7798   58.3594   37.9028 nm         1 CLA     -0.291600
     15 CED        78.5830   53.8930   34.6597 a3         1 CLA      0.005400
     16 CHA        77.0606   57.9362   35.8713 cs         1 CLA     -0.123800
     17 CHB        80.2196   60.6296   38.3603 aa         1 CLA     -0.291900
     18 CHC        77.2475   60.5655   42.0575 aa         1 CLA     -0.090400
     19 CHD        73.8582   58.2407   39.4717 aa         1 CLA     -0.052000
     20 CMA        81.8150   58.8310   36.4882 a3         1 CLA     -0.230700
     21 CMB        81.5680   62.7643   40.4528 a3         1 CLA     -0.180800
     22 CMC        74.9757   59.9800   44.1271 a3         1 CLA     -0.134000
     23 CMD        72.4081   56.5853   37.1194 a3         1 CLA     -0.141100
     24 C1         82.5318   56.0500   33.4086 a2         1 CLA      0.023000
     25 C1A        78.2453   58.7610   36.1548 ac         1 CLA     -0.015100
     26 C1B        79.7312   60.9497   39.6876 cr         1 CLA      0.054700
     27 C1C        76.1063   59.8816   41.7842 cn         1 CLA     -0.005600
     28 C1D        74.3847   57.9869   38.1754 ap         1 CLA     -0.047300
     29 O1A        81.0274   57.2011   31.5734 o2         1 CLA     -0.610800
     30 O1D        78.2653   56.1551   33.0350 o2         1 CLA     -0.558200
     31 C2         83.1626   55.6079   34.7231 c8         1 CLA     -0.325100
     32 C2A        79.4783   58.7359   35.2285 a1         1 CLA      0.098600
     33 C2B        80.3954   61.8734   40.6772 cb         1 CLA      0.088500
     34 C2C        75.0029   59.5564   42.7141 cb         1 CLA      0.053700
     35 C2D        73.7936   57.1896   37.0949 cb         1 CLA      0.058900
     36 O2A        82.1541   57.4688   33.5556 o1         1 CLA     -0.437200
     37 O2D        77.6447   54.9230   34.9722 o1         1 CLA     -0.357600
     38 C3         84.3346   54.9541   34.8264 c5         1 CLA      0.031200
     39 C3A        80.4319   59.5211   36.1312 a1         1 CLA      0.166800
     40 C3B        79.5993   61.7588   41.8093 cb         1 CLA      0.035000
     41 C3C        74.0238   58.8347   42.0274 cb         1 CLA     -0.089900
     42 C3D        74.8851   57.1171   36.2417 cb         1 CLA     -0.035900
     43 C4         84.2988   53.4526   35.0757 a3         1 CLA     -0.053300
     44 C4A        79.6901   59.8517   37.3808 ac         1 CLA      0.001800
     45 C4B        78.4103   60.9507   41.3785 cn         1 CLA     -0.020900
     46 C4C        74.5533   58.7912   40.6075 cr         1 CLA     -0.044400
     47 C4D        75.9561   57.8931   36.7475 c6         1 CLA     -0.046000
     48 C5         85.6595   55.6505   34.8295 a2         1 CLA     -0.070400
     49 C6         85.7622   56.8765   35.6968 a2         1 CLA      0.043900
     50 C7         85.8623   56.6090   37.2327 a2         1 CLA     -0.150000
     51 C8         86.0888   57.8624   38.1285 a1         1 CLA      0.064200
     52 C9         87.4473   58.5224   37.9603 a3         1 CLA     -0.259300
     53 C10        85.8276   57.7238   39.6896 a2         1 CLA     -0.071900
     54 C11        85.7115   58.8846   40.7933 a2         1 CLA      0.014500
     55 C12        84.9575   58.5015   42.0465 a2         1 CLA     -0.112100
     56 C13        84.6237   59.7693   43.0095 a1         1 CLA      0.089200
     57 C14        85.9125   60.2739   43.7513 a3         1 CLA     -0.239100
     58 C15        83.5378   59.4009   44.0844 a2         1 CLA     -0.102200
     59 C16        82.1289   59.0095   43.4733 a2         1 CLA      0.023900
     60 C17        81.0499   59.1295   44.5533 a2         1 CLA     -0.105700
     61 C18        79.6137   58.6995   44.1226 a1         1 CLA      0.206800
     62 C19        79.5137   57.1408   44.0123 a3         1 CLA     -0.280100
     63 C20        78.5282   59.2131   45.1712 a3         1 CLA     -0.280100
     64 NC         75.8660   59.3754   40.5864 nx         1 CLA     -0.309200
     65 MG         77.1672   59.5072   38.9874 mg         1 CLA      0.895000
     66 HMD3       72.4240   55.6411   36.6504 dc         1 CLA      0.064300
     67 HMD2       72.0730   56.4734   38.1113 dc         1 CLA      0.064300
     68 HMD1       71.7543   57.3165   36.6338 dc         1 CLA      0.064300
     69 HMC3       74.0159   60.5215   44.3483 dc         1 CLA      0.052100
     70 HMC2       75.1014   59.1685   44.8419 dc         1 CLA      0.052100
     71 HMC1       75.7498   60.7579   44.3103 dc         1 CLA      0.052100
     72 HMB3       81.2072   63.4910   39.8476 dc         1 CLA      0.063600
     73 HMB2       81.9045   63.3870   41.2744 dc         1 CLA      0.063600
     74 HMB1       82.4411   62.2489   40.0843 dc         1 CLA      0.063600
     75 HMA3       82.3954   59.3967   37.2125 dc         1 CLA      0.058300
     76 HMA2       81.7606   57.7869   36.7990 dc         1 CLA      0.058300
     77 HMA1       82.3715   58.7527   35.5831 dc         1 CLA      0.058300
     78 HED3       78.1193   53.5019   33.7853 dc         1 CLA      0.079300
     79 HED2       79.6120   54.2771   34.4057 dc         1 CLA      0.079300
     80 HED1       78.7609   53.1122   35.4235 dc         1 CLA      0.079300
     81 HBC3       72.6912   56.1601   42.2205 dc         1 CLA      0.016300
     82 HBC2       73.5003   56.7229   43.8805 dc         1 CLA      0.016300
     83 HBC1       71.7525   56.7999   43.6628 dc         1 CLA      0.016300
     84 HBB2       80.7833   63.3457   44.7539 da         1 CLA      0.183000
     85 HBB1       81.8310   62.6290   43.3745 da         1 CLA      0.183000
     86 HBA2       80.3781   59.7046   32.0389 dc         1 CLA      0.029400
     87 HBA1       81.3999   59.7299   33.4341 dc         1 CLA      0.029400
     88 HAC2       72.3400   58.9897   43.3436 dc         1 CLA      0.029300
     89 HAC1       71.9859   58.2954   41.7690 dc         1 CLA      0.029300
     90 HAA2       78.5800   58.5943   33.2632 dc         1 CLA      0.028700
     91 HAA1       79.0030   60.2967   33.8208 dc         1 CLA      0.028700
     92 H203       78.5019   60.3185   45.3028 dc         1 CLA      0.065600
     93 H202       77.5348   58.8380   44.8493 dc         1 CLA      0.065600
     94 H201       78.7168   58.7750   46.1202 dc         1 CLA      0.065600
     95 H193       78.4691   56.9810   43.8184 dc         1 CLA      0.065600
     96 H192       80.0258   56.7052   43.1782 dc         1 CLA      0.065600
     97 H191       79.7616   56.6555   44.9288 dc         1 CLA      0.065600
     98 H172       81.3147   58.7032   45.4950 dc         1 CLA      0.027600
     99 H171       80.9671   60.2115   44.7644 dc         1 CLA      0.027600
    100 H162       81.9382   59.6624   42.5646 dc         1 CLA      0.002900
    101 H161       82.1462   58.0108   43.2126 dc         1 CLA      0.002900
    102 H152       83.9777   58.5688   44.6661 dc         1 CLA      0.029100
    103 H151       83.3685   60.2677   44.7246 dc         1 CLA      0.029100
    104 H143       85.6932   61.0978   44.4502 dc         1 CLA      0.063600
    105 H142       86.3135   59.3430   44.2697 dc         1 CLA      0.063600
    106 H141       86.6966   60.7424   43.0336 dc         1 CLA      0.063600
    107 H122       84.1033   57.9332   41.8667 dc         1 CLA      0.032500
    108 H121       85.6136   57.8370   42.6010 dc         1 CLA      0.032500
    109 H112       86.7734   59.1703   40.9696 dc         1 CLA      0.006600
    110 H111       85.1968   59.7159   40.2853 dc         1 CLA      0.006600
    111 H102       84.8297   57.2483   39.7216 dc         1 CLA      0.024100
    112 H101       86.5592   56.9895   39.9806 dc         1 CLA      0.024100
    113 HHD        72.9391   57.7449   39.6030 da         1 CLA      0.174300
    114 HHC        77.3456   60.8859   43.0790 da         1 CLA      0.136800
    115 HHB        81.2417   60.9951   38.3646 da         1 CLA      0.138300
    116 HBD        76.6856   57.8382   33.9120 dc         1 CLA      0.107700
    117 HAB        78.6866   62.6734   43.5833 da         1 CLA      0.155200
    118 H93        88.2516   57.8655   38.0850 dc         1 CLA      0.069500
    119 H92        87.3368   58.9925   36.9571 dc         1 CLA      0.069500
    120 H91        87.6025   59.3485   38.5917 dc         1 CLA      0.069500
    121 H8         85.4487   58.6095   37.7189 dc         1 CLA      0.029300
    122 H72        84.9010   56.2461   37.4492 dc         1 CLA      0.044400
    123 H71        86.5181   55.7564   37.4067 dc         1 CLA      0.044400
    124 H62        86.7066   57.2659   35.5454 dc         1 CLA      0.015600
    125 H61        85.0170   57.6284   35.4009 dc         1 CLA      0.015600
    126 H52        86.4588   54.9274   35.0317 dc         1 CLA      0.033200
    127 H51        85.9698   55.9275   33.7855 dc         1 CLA      0.033200
    128 H43        84.6414   53.2688   36.1125 dc         1 CLA      0.037000
    129 H42        83.3034   52.9614   34.9885 dc         1 CLA      0.037000
    130 H41        85.0035   52.9188   34.3500 dc         1 CLA      0.037000
    131 H3A        80.6677   60.4338   35.6350 dc         1 CLA      0.041100
    132 H2A        79.7855   57.6580   35.2557 dc         1 CLA      0.083100
    133 H2         82.7949   55.9880   35.6838 da         1 CLA      0.180900
    134 H18        79.3310   59.2420   43.2432 dc         1 CLA     -0.003900
    135 H13        84.1794   60.4781   42.3146 dc         1 CLA      0.019700
    136 H12        81.6183   55.4140   33.0742 dc         1 CLA      0.120400
    137 H11        83.3108   55.9889   32.5513 dc         1 CLA      0.120400
    138 C1         69.4669   61.9214   49.9687 Z1         2 LUT      0.509236
    139 C2         68.0312   61.6915   50.6242 Z2         2 LUT     -0.434695
    140 C3         67.0784   62.9883   50.8143 Z3         2 LUT      0.437453
    141 O3         67.2545   63.4659   52.1387 S1         2 LUT     -0.547129
    142 C4         67.5158   64.1047   49.8780 Z4         2 LUT     -0.468603
    143 C5         68.2554   63.7260   48.6252 Z5         2 LUT      0.279246
    144 C6         69.3394   62.8870   48.7555 Z6         2 LUT     -0.305473
    145 C7         69.8851   62.3981   47.4125 Z7         2 LUT      0.069402
    146 C8         70.8846   62.9312   46.6712 Z8         2 LUT     -0.191631
    147 C9         71.3377   62.5233   45.3346 Z9         2 LUT      0.196698
    148 C10        72.4856   63.1148   44.8365 Y1         2 LUT     -0.208611
    149 C11        73.2880   62.9929   43.6009 Y2         2 LUT      0.030784
    150 C12        74.4826   63.6283   43.4353 Y3         2 LUT     -0.220316
    151 C13        75.2050   63.6600   42.1506 Y4         2 LUT      0.215937
    152 C14        76.3668   64.3843   42.1536 Y5         2 LUT     -0.185793
    153 C15        77.3106   64.7161   41.1143 Y6         2 LUT     -0.057835
    154 C16        70.1360   60.5696   49.6314 Y7         2 LUT     -0.405615
    155 C17        70.3203   62.5272   51.1111 Y7         2 LUT     -0.405615
    156 C18        67.5001   64.1274   47.3403 Y9         2 LUT     -0.369639
    157 C19        70.7012   61.4498   44.5574 W1         2 LUT     -0.333362
    158 C20        74.7531   62.8859   40.8913 W2         2 LUT     -0.323439
    159 C21        87.9424   66.7392   34.2049 Z1         2 LUT      0.406104
    160 C22        88.6513   66.2187   33.0557 Z2         2 LUT     -0.404965
    161 C23        88.8208   67.1480   31.8440 Z3         2 LUT      0.391255
    162 O23        89.4689   66.3416   30.8168 S1         2 LUT     -0.528210
    163 C24        87.4707   67.8166   31.5806 W6         2 LUT     -0.258361
    164 C25        86.4383   67.9244   32.4472 Z5         2 LUT      0.133546
    165 C26        86.4745   67.2817   33.7741 W8         2 LUT     -0.147008
    166 C27        85.7299   67.9998   34.8244 Z7         2 LUT      0.023843
    167 C28        84.6503   67.4872   35.4764 Z8         2 LUT     -0.216987
    168 C29        84.0768   67.8859   36.8260 Z9         2 LUT      0.206524
    169 C30        82.8391   67.3687   37.2196 Y1         2 LUT     -0.215556
    170 C31        82.0397   67.5930   38.3932 Y2         2 LUT      0.025142
    171 C32        81.1213   66.6698   38.8071 Y3         2 LUT     -0.212209
    172 C33        80.3045   66.7674   39.9495 Y4         2 LUT      0.240937
    173 C34        79.3707   65.7517   40.1860 Y5         2 LUT     -0.218862
    174 C35        78.4726   65.4144   41.3079 Y6         2 LUT     -0.023547
    175 C36        88.9575   67.7482   34.8514 Y7         2 LUT     -0.393485
    176 C37        87.9475   65.6470   35.2421 Y7         2 LUT     -0.393485
    177 C38        85.0902   68.5826   32.0478 Y9         2 LUT     -0.387526
    178 C39        84.8439   68.8247   37.6835 W1         2 LUT     -0.322618
    179 C40        80.6684   67.7691   41.0394 W2         2 LUT     -0.358472
    180 H403       80.7853   68.7774   40.7705 R7         2 LUT      0.097720
    181 H402       79.9788   67.6093   41.8967 R7         2 LUT      0.097720
    182 H401       81.6532   67.4955   41.5310 R7         2 LUT      0.097720
    183 H393       85.1511   69.6883   37.0969 R4         2 LUT      0.082505
    184 H392       84.2895   69.3166   38.4935 R4         2 LUT      0.082505
    185 H391       85.7745   68.2631   38.0663 R4         2 LUT      0.082505
    186 H383       85.0165   69.5147   32.6541 R1         2 LUT      0.104030
    187 H382       84.9766   68.7469   30.9769 R1         2 LUT      0.104030
    188 H381       84.2789   67.9441   32.4146 R1         2 LUT      0.104030
    189 H373       87.4493   64.6657   34.9874 T4         2 LUT      0.089537
    190 H372       88.9704   65.3178   35.5307 T4         2 LUT      0.089537
    191 H371       87.4719   65.9358   36.1608 T4         2 LUT      0.089537
    192 H363       89.2131   68.6485   34.3057 T4         2 LUT      0.089537
    193 H362       88.6297   68.0383   35.8750 T4         2 LUT      0.089537
    194 H361       89.9075   67.2717   35.1619 T4         2 LUT      0.089537
    195 H222       89.7066   65.9335   33.3299 U2         2 LUT      0.127376
    196 H221       88.1404   65.2884   32.6010 U2         2 LUT      0.127376
    197 H203       73.8223   62.3057   41.0333 R7         2 LUT      0.087068
    198 H202       74.6529   63.5581   40.0750 R7         2 LUT      0.087068
    199 H201       75.4870   62.1572   40.5795 R7         2 LUT      0.087068
    200 H193       71.0565   60.5489   44.9163 R4         2 LUT      0.089716
    201 H192       69.6347   61.4454   44.5628 R4         2 LUT      0.089716
    202 H191       71.0113   61.3607   43.5645 R4         2 LUT      0.089716
    203 H183       66.4666   64.0730   47.5567 R1         2 LUT      0.094572
    204 H182       67.8308   65.1654   47.1655 R1         2 LUT      0.094572
    205 H181       67.6162   63.5004   46.4687 R1         2 LUT      0.094572
    206 H173       69.8136   63.3764   51.5282 T4         2 LUT      0.093752
    207 H172       70.5174   61.9554   51.9816 T4         2 LUT      0.093752
    208 H171       71.3222   62.8507   50.8541 T4         2 LUT      0.093752
    209 H163       69.7085   59.9721   48.8765 T4         2 LUT      0.093752
    210 H162       71.2484   60.5737   49.6791 T4         2 LUT      0.093752
    211 H161       69.8443   59.9325   50.5048 T4         2 LUT      0.093752
    212 HO3        66.8555   62.8520   52.8269 Q1         2 LUT      0.300121
    213 H8         71.2988   63.8083   47.1676 U7         2 LUT      0.080784
    214 H7         69.2928   61.6681   46.9255 U6         2 LUT      0.042190
    215 H42        66.6266   64.7577   49.7130 U5         2 LUT      0.145166
    216 H41        68.0473   64.8985   50.4212 U5         2 LUT      0.145166
    217 H35        78.7791   65.7251   42.3201 T3         2 LUT      0.077919
    218 H34        79.2840   64.9732   39.4013 T2         2 LUT      0.073626
    219 H32        81.0460   65.8159   38.1555 T1         2 LUT      0.092510
    220 H31        82.2968   68.4455   38.9446 U9         2 LUT      0.070048
    221 H30        82.3989   66.7502   36.5498 U8         2 LUT      0.085442
    222 H3         66.0386   62.7074   50.5280 U3         2 LUT     -0.031596
    223 H28        84.1280   66.6118   35.0199 U7         2 LUT      0.084728
    224 H27        86.3249   68.8230   35.2733 U6         2 LUT      0.087291
    225 H26        85.8584   66.4167   33.5354 Q6         2 LUT      0.075325
    226 H24        87.4318   68.3773   30.6814 Q5         2 LUT      0.094482
    227 H23        89.4639   67.9535   32.0638 U3         2 LUT     -0.024869
    228 H22        67.5132   61.1935   49.7576 U2         2 LUT      0.127376
    229 H21        68.0716   61.0811   51.5827 U2         2 LUT      0.127376
    230 H15        77.0450   64.3211   40.1423 T3         2 LUT      0.093200
    231 H14        76.6605   64.8584   43.0925 T2         2 LUT      0.068865
    232 H12        74.9105   64.1860   44.3164 T1         2 LUT      0.095507
    233 H11        72.9210   62.5053   42.7648 U9         2 LUT      0.068930
    234 H10        72.8843   63.7891   45.5226 U8         2 LUT      0.083911
    235 H1         89.1670   66.3924   29.8912 Q1         2 LUT      0.297311
@<TRIPOS>BOND
    1     6     1 1
    2     7     2 1
    3     8     3 1
    4     9     4 1
    5    11     4 1
    6    12     6 1
    7    13     9 1
    8    16     9 1
    9    25     5 1
   10    25    16 1
   11    26    10 1
   12    26    17 1
   13    27    18 1
   14    28    14 1
   15    28    19 1
   16    29    12 1
   17    30    13 1
   18    31    24 1
   19    32     1 1
   20    32    25 1
   21    33    21 1
   22    33    26 1
   23    34    22 1
   24    34    27 1
   25    35    23 1
   26    35    28 1
   27    36    12 1
   28    36    24 1
   29    37    13 1
   30    37    15 1
   31    38    31 1
   32    39    20 1
   33    39    32 1
   34    40     2 1
   35    40    33 1
   36    41     3 1
   37    41    34 1
   38    42     4 1
   39    42    35 1
   40    43    38 1
   41    44     5 1
   42    44    17 1
   43    44    39 1
   44    45    10 1
   45    45    18 1
   46    45    40 1
   47    46    19 1
   48    46    41 1
   49    47    14 1
   50    47    16 1
   51    47    42 1
   52    48    38 1
   53    49    48 1
   54    50    49 1
   55    51    50 1
   56    52    51 1
   57    53    51 1
   58    54    53 1
   59    55    54 1
   60    56    55 1
   61    57    56 1
   62    58    56 1
   63    59    58 1
   64    60    59 1
   65    61    60 1
   66    62    61 1
   67    63    61 1
   68    64    27 1
   69    64    46 1
   70    65     5 1
   71    65    10 1
   72    65    64 1
   73    65    14 1
   74    66    23 1
   75    67    23 1
   76    68    23 1
   77    69    22 1
   78    70    22 1
   79    71    22 1
   80    72    21 1
   81    73    21 1
   82    74    21 1
   83    75    20 1
   84    76    20 1
   85    77    20 1
   86    78    15 1
   87    79    15 1
   88    80    15 1
   89    81     8 1
   90    82     8 1
   91    83     8 1
   92    84     7 1
   93    85     7 1
   94    86     6 1
   95    87     6 1
   96    88     3 1
   97    89     3 1
   98    90     1 1
   99    91     1 1
  100    92    63 1
  101    93    63 1
  102    94    63 1
  103    95    62 1
  104    96    62 1
  105    97    62 1
  106    98    60 1
  107    99    60 1
  108   100    59 1
  109   101    59 1
  110   102    58 1
  111   103    58 1
  112   104    57 1
  113   105    57 1
  114   106    57 1
  115   107    55 1
  116   108    55 1
  117   109    54 1
  118   110    54 1
  119   111    53 1
  120   112    53 1
  121   113    19 1
  122   114    18 1
  123   115    17 1
  124   116     9 1
  125   117     2 1
  126   118    52 1
  127   119    52 1
  128   120    52 1
  129   121    51 1
  130   122    50 1
  131   123    50 1
  132   124    49 1
  133   125    49 1
  134   126    48 1
  135   127    48 1
  136   128    43 1
  137   129    43 1
  138   130    43 1
  139   131    39 1
  140   132    32 1
  141   133    31 1
  142   134    61 1
  143   135    56 1
  144   136    24 1
  145   137    24 1
  146   139   138 1
  147   140   139 1
  148   141   140 1
  149   142   140 1
  150   143   142 1
  151   144   138 1
  152   144   143 1
  153   145   144 1
  154   146   145 1
  155   147   146 1
  156   148   147 1
  157   149   148 1
  158   150   149 1
  159   151   150 1
  160   152   151 1
  161   153   152 1
  162   154   138 1
  163   155   138 1
  164   156   143 1
  165   157   147 1
  166   158   151 1
  167   160   159 1
  168   161   160 1
  169   162   161 1
  170   163   161 1
  171   164   163 1
  172   165   159 1
  173   165   164 1
  174   166   165 1
  175   167   166 1
  176   168   167 1
  177   169   168 1
  178   170   169 1
  179   171   170 1
  180   172   171 1
  181   173   172 1
  182   174   153 1
  183   174   173 1
  184   175   159 1
  185   176   159 1
  186   177   164 1
  187   178   168 1
  188   179   172 1
  189   180   179 1
  190   181   179 1
  191   182   179 1
  192   183   178 1
  193   184   178 1
  194   185   178 1
  195   186   177 1
  196   187   177 1
  197   188   177 1
  198   189   176 1
  199   190   176 1
  200   191   176 1
  201   192   175 1
  202   193   175 1
  203   194   175 1
  204   195   160 1
  205   196   160 1
  206   197   158 1
  207   198   158 1
  208   199   158 1
  209   200   157 1
  210   201   157 1
  211   202   157 1
  212   203   156 1
  213   204   156 1
  214   205   156 1
  215   206   155 1
  216   207   155 1
  217   208   155 1
  218   209   154 1
  219   210   154 1
  220   211   154 1
  221   212   141 1
  222   213   146 1
  223   214   145 1
  224   215   142 1
  225   216   142 1
  226   217   174 1
  227   218   173 1
  228   219   171 1
  229   220   170 1
  230   221   169 1
  231   222   140 1
  232   223   167 1
  233   224   166 1
  234   225   165 1
  235   226   163 1
  236   227   161 1
  237   228   139 1
  238   229   139 1
  239   230   153 1
  240   231   152 1
  241   232   150 1
  242   233   149 1
  243   234   148 1
  244   235   162 1
  245   65    153 1
  246   65    174 1
@<TRIPOS>SUBSTRUCTURE
      1 CLA               1 ****               0 ****  **** 
      2 LUT             138 ****               0 ****  **** 
