@<TRIPOS>MOLECULE
Cpptraj generated mol2 file.
  235   246     2     0     0
SMALL
USER_CHARGES


@<TRIPOS>ATOM
      1 CAA        77.9353   59.3219   34.7832 a2         1 CLA     -0.055900
      2 CAB        78.1327   62.9283   43.9687 c8         1 CLA     -0.148500
      3 CAC        71.0787   58.9135   43.3853 a2         1 CLA     -0.012600
      4 CAD        73.8252   56.5420   35.9517 ck         1 CLA      0.398800
      5 NA         76.9424   59.5228   38.2838 ns         1 CLA     -0.225500
      6 CBA        79.2397   59.3593   33.9341 a2         1 CLA     -0.135000
      7 CBB        77.1221   63.3869   44.7987 c0         1 CLA     -0.395200
      8 CBC        70.9809   57.4633   43.6801 a3         1 CLA     -0.037700
      9 CBD        75.2935   57.0811   35.6679 a1         1 CLA     -0.053900
     10 NB         76.9234   60.8981   40.9461 nm         1 CLA     -0.295700
     11 OBD        73.1480   55.8524   35.1498 o2         1 CLA     -0.494600
     12 CGA        79.7475   58.0733   33.4197 c4         1 CLA      0.827000
     13 CGD        76.2924   55.9659   35.3591 c4         1 CLA      0.655300
     14 ND         74.3995   58.4007   38.9176 nm         1 CLA     -0.291600
     15 CED        76.3559   53.5829   35.7228 a3         1 CLA      0.005400
     16 CHA        75.7043   57.9855   36.8700 cs         1 CLA     -0.123800
     17 CHB        78.4726   61.2083   39.1095 aa         1 CLA     -0.291900
     18 CHC        75.7747   60.8430   43.1687 aa         1 CLA     -0.090400
     19 CHD        72.4979   58.2941   40.5294 aa         1 CLA     -0.052000
     20 CMA        80.4006   59.4348   37.4600 a3         1 CLA     -0.230700
     21 CMB        79.8831   63.0277   41.4069 a3         1 CLA     -0.180800
     22 CMC        73.4648   60.3755   45.0835 a3         1 CLA     -0.134000
     23 CMD        71.1819   56.4533   38.3081 a3         1 CLA     -0.141100
     24 C1         80.6441   55.9262   33.8875 a2         1 CLA      0.023000
     25 C1A        76.8036   58.8166   37.1430 ac         1 CLA     -0.015100
     26 C1B        78.0240   61.5107   40.4637 cr         1 CLA      0.054700
     27 C1C        74.5940   60.1752   42.7522 cn         1 CLA     -0.005600
     28 C1D        73.1502   57.9283   39.3359 ap         1 CLA     -0.047300
     29 O1A        79.8392   57.7430   32.2546 o2         1 CLA     -0.610800
     30 O1D        77.1592   55.8961   34.4951 o2         1 CLA     -0.558200
     31 C2         81.4557   55.1572   34.8913 c8         1 CLA     -0.325100
     32 C2A        78.1384   58.8578   36.2822 a1         1 CLA      0.098600
     33 C2B        78.5944   62.3164   41.5299 cb         1 CLA      0.088500
     34 C2C        73.4388   59.9322   43.6680 cb         1 CLA      0.053700
     35 C2D        72.5625   57.1099   38.2742 cb         1 CLA      0.058900
     36 O2A        80.2261   57.2410   34.4038 o1         1 CLA     -0.437200
     37 O2D        76.1973   54.9414   36.3497 o1         1 CLA     -0.357600
     38 C3         82.5619   55.7092   35.5274 c5         1 CLA      0.031200
     39 C3A        79.0112   59.9377   37.0028 a1         1 CLA      0.166800
     40 C3B        77.8338   62.2532   42.6935 cb         1 CLA      0.035000
     41 C3C        72.4408   59.3745   42.8802 cb         1 CLA     -0.089900
     42 C3D        73.4910   57.0919   37.2608 cb         1 CLA     -0.035900
     43 C4         84.0282   55.5820   35.1143 a3         1 CLA     -0.053300
     44 C4A        78.0849   60.2046   38.2079 ac         1 CLA      0.001800
     45 C4B        76.7485   61.2727   42.3131 cn         1 CLA     -0.020900
     46 C4C        73.0101   59.0948   41.5922 cr         1 CLA     -0.044400
     47 C4D        74.6293   57.8801   37.7152 c6         1 CLA     -0.046000
     48 C5         82.3585   56.5179   36.8469 a2         1 CLA     -0.070400
     49 C6         82.8285   55.8665   38.1292 a2         1 CLA      0.043900
     50 C7         82.5843   56.7882   39.3696 a2         1 CLA     -0.150000
     51 C8         83.3587   58.1169   39.2694 a1         1 CLA      0.064200
     52 C9         84.8793   57.9593   38.9616 a3         1 CLA     -0.259300
     53 C10        83.2080   59.0001   40.6287 a2         1 CLA     -0.071900
     54 C11        81.7847   59.2198   41.1728 a2         1 CLA      0.014500
     55 C12        81.7768   60.3232   42.2743 a2         1 CLA     -0.112100
     56 C13        82.7990   60.2080   43.5340 a1         1 CLA      0.089200
     57 C14        82.6623   58.9599   44.4803 a3         1 CLA     -0.239100
     58 C15        82.6184   61.5044   44.3503 a2         1 CLA     -0.102200
     59 C16        83.3268   61.7073   45.6945 a2         1 CLA      0.023900
     60 C17        82.8356   62.9336   46.4513 a2         1 CLA     -0.105700
     61 C18        83.7585   63.2418   47.7111 a1         1 CLA      0.206800
     62 C19        83.1663   64.5575   48.3113 a3         1 CLA     -0.280100
     63 C20        83.9445   62.0096   48.6822 a3         1 CLA     -0.280100
     64 NC         74.2608   59.6796   41.5002 nx         1 CLA     -0.309200
     65 MG         75.6520   59.6656   39.8552 mg         1 CLA      0.895000
     66 HMD3       70.4582   57.2177   38.0026 dc         1 CLA      0.064300
     67 HMD2       71.3310   55.6864   37.5966 dc         1 CLA      0.064300
     68 HMD1       70.8755   56.0776   39.2480 dc         1 CLA      0.064300
     69 HMC3       74.4435   60.2959   45.5122 dc         1 CLA      0.052100
     70 HMC2       73.2807   61.4742   45.0771 dc         1 CLA      0.052100
     71 HMC1       72.7187   59.7772   45.6578 dc         1 CLA      0.052100
     72 HMB3       80.4884   63.4176   42.3277 dc         1 CLA      0.063600
     73 HMB2       80.6061   62.4796   40.7104 dc         1 CLA      0.063600
     74 HMB1       79.6290   63.8997   40.9359 dc         1 CLA      0.063600
     75 HMA3       80.2376   58.5316   38.1004 dc         1 CLA      0.058300
     76 HMA2       80.9581   59.2711   36.5522 dc         1 CLA      0.058300
     77 HMA1       80.9488   60.1799   38.0393 dc         1 CLA      0.058300
     78 HED3       75.7494   53.4675   34.8390 dc         1 CLA      0.079300
     79 HED2       77.3952   53.4648   35.4700 dc         1 CLA      0.079300
     80 HED1       76.1388   52.7749   36.5101 dc         1 CLA      0.079300
     81 HBC3       71.8209   57.0588   44.2569 dc         1 CLA      0.016300
     82 HBC2       70.0578   57.3260   44.2304 dc         1 CLA      0.016300
     83 HBC1       70.8286   56.8162   42.8344 dc         1 CLA      0.016300
     84 HBB2       77.3637   63.5321   45.8473 da         1 CLA      0.183000
     85 HBB1       76.0782   63.4150   44.5510 da         1 CLA      0.183000
     86 HBA2       78.9466   59.9089   32.9943 dc         1 CLA      0.029400
     87 HBA1       80.1100   59.8867   34.4114 dc         1 CLA      0.029400
     88 HAC2       70.7669   59.5306   44.2048 dc         1 CLA      0.029300
     89 HAC1       70.2693   59.1814   42.7030 dc         1 CLA      0.029300
     90 HAA2       77.3885   58.5505   34.1484 dc         1 CLA      0.028700
     91 HAA1       77.4407   60.3015   34.6940 dc         1 CLA      0.028700
     92 H203       84.3762   61.0704   48.2119 dc         1 CLA      0.065600
     93 H202       84.6311   62.2918   49.5176 dc         1 CLA      0.065600
     94 H201       82.9125   61.7671   49.0674 dc         1 CLA      0.065600
     95 H193       83.0437   65.3274   47.5208 dc         1 CLA      0.065600
     96 H192       82.1835   64.2980   48.7161 dc         1 CLA      0.065600
     97 H191       83.7372   64.8822   49.1859 dc         1 CLA      0.065600
     98 H172       82.8524   63.8078   45.7855 dc         1 CLA      0.027600
     99 H171       81.8134   62.8548   46.7976 dc         1 CLA      0.027600
    100 H162       82.9241   60.9034   46.3450 dc         1 CLA      0.002900
    101 H161       84.3328   61.5585   45.5629 dc         1 CLA      0.002900
    102 H152       82.7399   62.4218   43.6981 dc         1 CLA      0.029100
    103 H151       81.5462   61.5822   44.5809 dc         1 CLA      0.029100
    104 H143       81.7368   59.2048   45.0187 dc         1 CLA      0.063600
    105 H142       82.4960   57.9871   43.9465 dc         1 CLA      0.063600
    106 H141       83.4803   58.9355   45.1620 dc         1 CLA      0.063600
    107 H122       81.9451   61.2333   41.7206 dc         1 CLA      0.032500
    108 H121       80.7598   60.2759   42.6065 dc         1 CLA      0.032500
    109 H112       81.1474   59.4563   40.3202 dc         1 CLA      0.006600
    110 H111       81.5557   58.3516   41.6482 dc         1 CLA      0.006600
    111 H102       83.8947   58.5933   41.3868 dc         1 CLA      0.024100
    112 H101       83.6145   60.0472   40.3585 dc         1 CLA      0.024100
    113 HHD        71.6181   57.8765   40.7699 da         1 CLA      0.174300
    114 HHC        75.8479   61.0688   44.2171 da         1 CLA      0.136800
    115 HHB        79.4222   61.6525   38.8992 da         1 CLA      0.138300
    116 HBD        75.2684   57.7493   34.8552 dc         1 CLA      0.107700
    117 HAB        79.1669   63.0850   44.2735 da         1 CLA      0.155200
    118 H93        85.3759   58.9866   38.9204 dc         1 CLA      0.069500
    119 H92        85.2266   57.2734   39.7048 dc         1 CLA      0.069500
    120 H91        84.9705   57.4136   38.0134 dc         1 CLA      0.069500
    121 H8         82.8665   58.7299   38.5306 dc         1 CLA      0.029300
    122 H72        81.5031   56.9530   39.4500 dc         1 CLA      0.044400
    123 H71        82.8902   56.2914   40.2247 dc         1 CLA      0.044400
    124 H62        82.1513   55.0238   38.3820 dc         1 CLA      0.015600
    125 H61        83.7892   55.4127   37.9706 dc         1 CLA      0.015600
    126 H52        82.8994   57.4391   36.6389 dc         1 CLA      0.033200
    127 H51        81.3437   56.7241   37.0749 dc         1 CLA      0.033200
    128 H43        84.7183   55.2839   35.8838 dc         1 CLA      0.037000
    129 H42        84.1125   54.9111   34.3340 dc         1 CLA      0.037000
    130 H41        84.3363   56.5815   34.7424 dc         1 CLA      0.037000
    131 H3A        78.9744   60.8319   36.3280 dc         1 CLA      0.041100
    132 H2A        78.6246   57.8943   36.2971 dc         1 CLA      0.083100
    133 H2         81.1383   54.1484   35.2293 da         1 CLA      0.180900
    134 H18        84.7997   63.4781   47.3632 dc         1 CLA     -0.003900
    135 H13        83.8062   60.1033   43.1019 dc         1 CLA      0.019700
    136 H12        79.7542   55.3116   33.6108 dc         1 CLA      0.120400
    137 H11        81.2512   56.0851   33.0865 dc         1 CLA      0.120400
    138 C1         66.6250   61.8716   51.0000 Z1         2 LUT      0.509236
    139 C2         66.7601   63.2431   51.7792 Z2         2 LUT     -0.434695
    140 C3         65.5679   64.1617   51.7046 Z3         2 LUT      0.437453
    141 O3         66.0840   65.4262   52.0382 S1         2 LUT     -0.547129
    142 C4         64.8952   64.1597   50.3553 Z4         2 LUT     -0.468603
    143 C5         65.6306   63.5095   49.2522 Z5         2 LUT      0.279246
    144 C6         66.3756   62.3967   49.4635 Z6         2 LUT     -0.305473
    145 C7         67.4638   62.0965   48.4993 Z7         2 LUT      0.069402
    146 C8         68.3462   62.8192   47.7354 Z8         2 LUT     -0.191631
    147 C9         69.2647   62.3716   46.6469 Z9         2 LUT      0.196698
    148 C10        70.2707   63.1884   46.1792 Y1         2 LUT     -0.208611
    149 C11        70.8792   63.0261   44.8572 Y2         2 LUT      0.030784
    150 C12        72.0015   63.7232   44.5136 Y3         2 LUT     -0.220316
    151 C13        72.7939   63.7637   43.2966 Y4         2 LUT      0.215937
    152 C14        74.0495   64.3779   43.3572 Y5         2 LUT     -0.185793
    153 C15        75.0064   64.5420   42.2868 Y6         2 LUT     -0.057835
    154 C16        65.4077   61.1645   51.6792 Y7         2 LUT     -0.405615
    155 C17        67.9139   61.0396   51.2394 Y7         2 LUT     -0.405615
    156 C18        65.5383   64.3008   47.9400 Y9         2 LUT     -0.369639
    157 C19        68.7010   61.1637   45.9318 W1         2 LUT     -0.333362
    158 C20        72.1344   63.1973   42.0043 W2         2 LUT     -0.323439
    159 C21        86.3179   66.4794   35.9056 Z1         2 LUT      0.406104
    160 C22        86.8822   65.7169   34.6946 Z2         2 LUT     -0.404965
    161 C23        87.0715   66.6055   33.4440 Z3         2 LUT      0.391255
    162 O23        86.9815   65.6632   32.3947 S1         2 LUT     -0.528210
    163 C24        85.9302   67.5866   33.1516 W6         2 LUT     -0.258361
    164 C25        84.8778   67.6594   33.9730 Z5         2 LUT      0.133546
    165 C26        84.8764   66.9571   35.3742 W8         2 LUT     -0.147008
    166 C27        84.0744   67.6394   36.4824 Z7         2 LUT      0.023843
    167 C28        82.9018   67.2208   36.9645 Z8         2 LUT     -0.216987
    168 C29        82.1908   67.7272   38.1941 Z9         2 LUT      0.206524
    169 C30        81.0903   67.0285   38.6102 Y1         2 LUT     -0.215556
    170 C31        80.3037   67.0528   39.8475 Y2         2 LUT      0.025142
    171 C32        79.1003   66.3754   40.1133 Y3         2 LUT     -0.212209
    172 C33        78.2941   66.2553   41.3229 Y4         2 LUT      0.240937
    173 C34        77.1215   65.5213   41.2435 Y5         2 LUT     -0.218862
    174 C35        76.1189   65.2936   42.2406 Y6         2 LUT     -0.023547
    175 C36        87.3622   67.4443   36.6272 Y7         2 LUT     -0.393485
    176 C37        86.0991   65.4679   37.0351 Y7         2 LUT     -0.393485
    177 C38        83.5991   68.3231   33.4652 Y9         2 LUT     -0.387526
    178 C39        82.8404   68.8800   38.9898 W1         2 LUT     -0.322618
    179 C40        78.8212   66.9339   42.5317 W2         2 LUT     -0.358472
    180 H403       78.1791   66.7407   43.3472 R7         2 LUT      0.097720
    181 H402       79.8703   66.5571   42.8207 R7         2 LUT      0.097720
    182 H401       78.8566   68.0548   42.4917 R7         2 LUT      0.097720
    183 H393       82.2418   69.1984   39.8047 R4         2 LUT      0.082505
    184 H392       83.8057   68.5591   39.2799 R4         2 LUT      0.082505
    185 H391       82.9751   69.7930   38.3684 R4         2 LUT      0.082505
    186 H383       83.7367   69.3540   33.2266 R1         2 LUT      0.104030
    187 H382       83.1643   67.7187   32.6363 R1         2 LUT      0.104030
    188 H381       82.7203   68.3637   34.1789 R1         2 LUT      0.104030
    189 H373       86.9550   64.8658   37.2702 T4         2 LUT      0.089537
    190 H372       85.6452   65.8482   37.9046 T4         2 LUT      0.089537
    191 H371       85.4508   64.6445   36.7429 T4         2 LUT      0.089537
    192 H363       88.3064   66.9489   36.8117 T4         2 LUT      0.089537
    193 H362       87.7401   68.2028   35.8843 T4         2 LUT      0.089537
    194 H361       87.0138   67.9434   37.5164 T4         2 LUT      0.089537
    195 H222       87.8503   65.3672   34.9966 U2         2 LUT      0.127376
    196 H221       86.2471   64.8640   34.3506 U2         2 LUT      0.127376
    197 H203       71.0184   63.3918   41.9448 R7         2 LUT      0.087068
    198 H202       72.5829   63.4174   41.0209 R7         2 LUT      0.087068
    199 H201       72.1552   62.0797   42.0257 R7         2 LUT      0.087068
    200 H193       69.0954   60.2393   46.3519 R4         2 LUT      0.089716
    201 H192       67.6230   61.1349   45.9814 R4         2 LUT      0.089716
    202 H191       68.8212   61.2827   44.8764 R4         2 LUT      0.089716
    203 H183       66.2342   65.1404   47.9660 R1         2 LUT      0.094572
    204 H182       65.7207   63.6388   47.1244 R1         2 LUT      0.094572
    205 H181       64.5529   64.7010   47.8520 R1         2 LUT      0.094572
    206 H173       68.7705   61.7217   50.9993 T4         2 LUT      0.093752
    207 H172       68.0204   60.8601   52.3102 T4         2 LUT      0.093752
    208 H171       67.8741   60.0536   50.7369 T4         2 LUT      0.093752
    209 H163       65.4086   60.0863   51.4515 T4         2 LUT      0.093752
    210 H162       65.3350   61.2364   52.8117 T4         2 LUT      0.093752
    211 H161       64.5372   61.5350   51.1640 T4         2 LUT      0.093752
    212 HO3        65.3925   66.0032   52.3783 Q1         2 LUT      0.300121
    213 H8         68.3409   63.8942   47.8703 U7         2 LUT      0.080784
    214 H7         67.5320   61.0085   48.3434 U6         2 LUT      0.042190
    215 H42        63.8798   63.8057   50.5258 U5         2 LUT      0.145166
    216 H41        64.7327   65.2177   50.0531 U5         2 LUT      0.145166
    217 H35        76.1770   65.8796   43.1523 T3         2 LUT      0.077919
    218 H34        76.9208   65.0928   40.3017 T2         2 LUT      0.073626
    219 H32        78.7757   65.8241   39.2303 T1         2 LUT      0.092510
    220 H31        80.6953   67.6538   40.6859 U9         2 LUT      0.070048
    221 H30        80.8326   66.1814   37.9329 U8         2 LUT      0.085442
    222 H3         64.9373   63.6244   52.3694 U3         2 LUT     -0.031596
    223 H28        82.5118   66.3449   36.4464 U7         2 LUT      0.084728
    224 H27        84.6607   68.4729   37.0676 U6         2 LUT      0.087291
    225 H26        84.3474   65.9778   35.3258 Q6         2 LUT      0.075325
    226 H24        85.9526   68.0055   32.1263 Q5         2 LUT      0.094482
    227 H23        88.0726   67.1412   33.6746 U3         2 LUT     -0.024869
    228 H22        67.0579   63.1716   52.8390 U2         2 LUT      0.127376
    229 H21        67.5754   63.7744   51.2715 U2         2 LUT      0.127376
    230 H15        74.8357   64.0144   41.3979 T3         2 LUT      0.093200
    231 H14        74.4229   64.8303   44.3058 T2         2 LUT      0.068865
    232 H12        72.4362   64.2764   45.3318 T1         2 LUT      0.095507
    233 H11        70.2935   62.4671   44.1116 U9         2 LUT      0.068930
    234 H10        70.3896   64.1153   46.8464 U8         2 LUT      0.083911
    235 H1         87.5619   65.8702   31.6590 Q1         2 LUT      0.297311
@<TRIPOS>BOND
    1     6     1 1
    2     7     2 1
    3     8     3 1
    4     9     4 1
    5    11     4 1
    6    12     6 1
    7    13     9 1
    8    16     9 1
    9    25     5 1
   10    25    16 1
   11    26    10 1
   12    26    17 1
   13    27    18 1
   14    28    14 1
   15    28    19 1
   16    29    12 1
   17    30    13 1
   18    31    24 1
   19    32     1 1
   20    32    25 1
   21    33    21 1
   22    33    26 1
   23    34    22 1
   24    34    27 1
   25    35    23 1
   26    35    28 1
   27    36    12 1
   28    36    24 1
   29    37    13 1
   30    37    15 1
   31    38    31 1
   32    39    20 1
   33    39    32 1
   34    40     2 1
   35    40    33 1
   36    41     3 1
   37    41    34 1
   38    42     4 1
   39    42    35 1
   40    43    38 1
   41    44     5 1
   42    44    17 1
   43    44    39 1
   44    45    10 1
   45    45    18 1
   46    45    40 1
   47    46    19 1
   48    46    41 1
   49    47    14 1
   50    47    16 1
   51    47    42 1
   52    48    38 1
   53    49    48 1
   54    50    49 1
   55    51    50 1
   56    52    51 1
   57    53    51 1
   58    54    53 1
   59    55    54 1
   60    56    55 1
   61    57    56 1
   62    58    56 1
   63    59    58 1
   64    60    59 1
   65    61    60 1
   66    62    61 1
   67    63    61 1
   68    64    27 1
   69    64    46 1
   70    65     5 1
   71    65    10 1
   72    65    64 1
   73    65    14 1
   74    66    23 1
   75    67    23 1
   76    68    23 1
   77    69    22 1
   78    70    22 1
   79    71    22 1
   80    72    21 1
   81    73    21 1
   82    74    21 1
   83    75    20 1
   84    76    20 1
   85    77    20 1
   86    78    15 1
   87    79    15 1
   88    80    15 1
   89    81     8 1
   90    82     8 1
   91    83     8 1
   92    84     7 1
   93    85     7 1
   94    86     6 1
   95    87     6 1
   96    88     3 1
   97    89     3 1
   98    90     1 1
   99    91     1 1
  100    92    63 1
  101    93    63 1
  102    94    63 1
  103    95    62 1
  104    96    62 1
  105    97    62 1
  106    98    60 1
  107    99    60 1
  108   100    59 1
  109   101    59 1
  110   102    58 1
  111   103    58 1
  112   104    57 1
  113   105    57 1
  114   106    57 1
  115   107    55 1
  116   108    55 1
  117   109    54 1
  118   110    54 1
  119   111    53 1
  120   112    53 1
  121   113    19 1
  122   114    18 1
  123   115    17 1
  124   116     9 1
  125   117     2 1
  126   118    52 1
  127   119    52 1
  128   120    52 1
  129   121    51 1
  130   122    50 1
  131   123    50 1
  132   124    49 1
  133   125    49 1
  134   126    48 1
  135   127    48 1
  136   128    43 1
  137   129    43 1
  138   130    43 1
  139   131    39 1
  140   132    32 1
  141   133    31 1
  142   134    61 1
  143   135    56 1
  144   136    24 1
  145   137    24 1
  146   139   138 1
  147   140   139 1
  148   141   140 1
  149   142   140 1
  150   143   142 1
  151   144   138 1
  152   144   143 1
  153   145   144 1
  154   146   145 1
  155   147   146 1
  156   148   147 1
  157   149   148 1
  158   150   149 1
  159   151   150 1
  160   152   151 1
  161   153   152 1
  162   154   138 1
  163   155   138 1
  164   156   143 1
  165   157   147 1
  166   158   151 1
  167   160   159 1
  168   161   160 1
  169   162   161 1
  170   163   161 1
  171   164   163 1
  172   165   159 1
  173   165   164 1
  174   166   165 1
  175   167   166 1
  176   168   167 1
  177   169   168 1
  178   170   169 1
  179   171   170 1
  180   172   171 1
  181   173   172 1
  182   174   153 1
  183   174   173 1
  184   175   159 1
  185   176   159 1
  186   177   164 1
  187   178   168 1
  188   179   172 1
  189   180   179 1
  190   181   179 1
  191   182   179 1
  192   183   178 1
  193   184   178 1
  194   185   178 1
  195   186   177 1
  196   187   177 1
  197   188   177 1
  198   189   176 1
  199   190   176 1
  200   191   176 1
  201   192   175 1
  202   193   175 1
  203   194   175 1
  204   195   160 1
  205   196   160 1
  206   197   158 1
  207   198   158 1
  208   199   158 1
  209   200   157 1
  210   201   157 1
  211   202   157 1
  212   203   156 1
  213   204   156 1
  214   205   156 1
  215   206   155 1
  216   207   155 1
  217   208   155 1
  218   209   154 1
  219   210   154 1
  220   211   154 1
  221   212   141 1
  222   213   146 1
  223   214   145 1
  224   215   142 1
  225   216   142 1
  226   217   174 1
  227   218   173 1
  228   219   171 1
  229   220   170 1
  230   221   169 1
  231   222   140 1
  232   223   167 1
  233   224   166 1
  234   225   165 1
  235   226   163 1
  236   227   161 1
  237   228   139 1
  238   229   139 1
  239   230   153 1
  240   231   152 1
  241   232   150 1
  242   233   149 1
  243   234   148 1
  244   235   162 1
  245   65    153 1
  246   65    174 1
@<TRIPOS>SUBSTRUCTURE
      1 CLA               1 ****               0 ****  **** 
      2 LUT             138 ****               0 ****  **** 
