@<TRIPOS>MOLECULE
Cpptraj generated mol2 file.
  235   246     2     0     0
SMALL
USER_CHARGES


@<TRIPOS>ATOM
      1 CAA        79.6157   58.5796   34.5497 a2         1 CLA     -0.055900
      2 CAB        79.8445   61.9669   43.6692 c8         1 CLA     -0.148500
      3 CAC        72.8213   58.0066   43.3317 a2         1 CLA     -0.012600
      4 CAD        75.4209   55.9643   35.7208 ck         1 CLA      0.398800
      5 NA         78.6533   58.7833   38.0360 ns         1 CLA     -0.225500
      6 CBA        80.9008   58.5897   33.7289 a2         1 CLA     -0.135000
      7 CBB        80.9837   61.6473   44.3782 c0         1 CLA     -0.395200
      8 CBC        72.8119   56.4531   43.6055 a3         1 CLA     -0.037700
      9 CBD        76.8389   56.5950   35.3825 a1         1 CLA     -0.053900
     10 NB         78.5727   60.0912   40.6710 nm         1 CLA     -0.295700
     11 OBD        74.7992   55.3064   34.9184 o2         1 CLA     -0.494600
     12 CGA        81.5199   57.2365   33.2805 c4         1 CLA      0.827000
     13 CGD        77.7253   55.4728   34.8909 c4         1 CLA      0.655300
     14 ND         75.8624   57.7438   38.6764 nm         1 CLA     -0.291600
     15 CED        79.0960   53.5868   35.5443 a3         1 CLA      0.005400
     16 CHA        77.2649   57.3799   36.6396 cs         1 CLA     -0.123800
     17 CHB        80.4771   60.0504   39.0618 aa         1 CLA     -0.291900
     18 CHC        77.2550   60.3769   42.8373 aa         1 CLA     -0.090400
     19 CHD        74.0210   57.5300   40.3693 aa         1 CLA     -0.052000
     20 CMA        82.0408   58.0547   37.1854 a3         1 CLA     -0.230700
     21 CMB        81.7515   62.0805   41.0703 a3         1 CLA     -0.180800
     22 CMC        75.0779   59.7962   45.0420 a3         1 CLA     -0.134000
     23 CMD        72.6754   55.8845   37.9073 a3         1 CLA     -0.141100
     24 C1         82.5896   55.1674   34.0806 a2         1 CLA      0.023000
     25 C1A        78.4528   58.0573   36.9035 ac         1 CLA     -0.015100
     26 C1B        79.9228   60.3968   40.3274 cr         1 CLA      0.054700
     27 C1C        76.1538   59.5451   42.6035 cn         1 CLA     -0.005600
     28 C1D        74.6191   57.3085   39.0779 ap         1 CLA     -0.047300
     29 O1A        81.6638   56.8279   32.1364 o2         1 CLA     -0.610800
     30 O1D        77.9940   55.3383   33.7011 o2         1 CLA     -0.558200
     31 C2         82.9894   54.4680   35.3774 c8         1 CLA     -0.325100
     32 C2A        79.7451   58.0165   36.0290 a1         1 CLA      0.098600
     33 C2B        80.4853   61.3133   41.2613 cb         1 CLA      0.088500
     34 C2C        75.0446   59.3220   43.5494 cb         1 CLA      0.053700
     35 C2D        73.9566   56.4932   37.9886 cb         1 CLA      0.058900
     36 O2A        82.0089   56.4939   34.3727 o1         1 CLA     -0.437200
     37 O2D        78.0942   54.6480   35.8298 o1         1 CLA     -0.357600
     38 C3         84.0810   53.6808   35.5989 c5         1 CLA      0.031200
     39 C3A        80.7277   58.9171   36.8332 a1         1 CLA      0.166800
     40 C3B        79.6048   61.4100   42.3049 cb         1 CLA      0.035000
     41 C3C        74.1154   58.5604   42.8230 cb         1 CLA     -0.089900
     42 C3D        75.0351   56.4715   37.0244 cb         1 CLA     -0.035900
     43 C4         84.0163   52.1362   35.5024 a3         1 CLA     -0.053300
     44 C4A        79.9030   59.2938   38.0679 ac         1 CLA      0.001800
     45 C4B        78.3690   60.6632   41.9650 cn         1 CLA     -0.020900
     46 C4C        74.7049   58.2872   41.4456 cr         1 CLA     -0.044400
     47 C4D        76.1515   57.2093   37.5166 c6         1 CLA     -0.046000
     48 C5         85.3959   54.3256   36.1117 a2         1 CLA     -0.070400
     49 C6         85.1202   55.3152   37.2442 a2         1 CLA      0.043900
     50 C7         86.4383   55.7754   37.8303 a2         1 CLA     -0.150000
     51 C8         86.2965   56.7119   39.0704 a1         1 CLA      0.064200
     52 C9         85.6490   58.0865   38.4928 a3         1 CLA     -0.259300
     53 C10        87.6751   56.8952   39.8531 a2         1 CLA     -0.071900
     54 C11        87.4129   57.4254   41.2776 a2         1 CLA      0.014500
     55 C12        88.7271   57.8177   41.9380 a2         1 CLA     -0.112100
     56 C13        88.6185   58.3266   43.4252 a1         1 CLA      0.089200
     57 C14        89.9593   58.7953   43.9587 a3         1 CLA     -0.239100
     58 C15        87.9133   57.2957   44.3995 a2         1 CLA     -0.102200
     59 C16        87.6632   57.8613   45.8069 a2         1 CLA      0.023900
     60 C17        86.4995   57.0590   46.5075 a2         1 CLA     -0.105700
     61 C18        86.0197   57.7146   47.8314 a1         1 CLA      0.206800
     62 C19        84.5150   57.5071   48.0851 a3         1 CLA     -0.280100
     63 C20        86.8504   57.1472   49.0164 a3         1 CLA     -0.280100
     64 NC         75.8757   58.9663   41.3185 nx         1 CLA     -0.309200
     65 MG         77.2091   59.0959   39.5938 mg         1 CLA      0.895000
     66 HMD3       71.9294   56.5146   37.3710 dc         1 CLA      0.064300
     67 HMD2       72.7007   54.9235   37.4902 dc         1 CLA      0.064300
     68 HMD1       72.3195   55.8143   38.8803 dc         1 CLA      0.064300
     69 HMC3       75.3435   60.8443   45.1022 dc         1 CLA      0.052100
     70 HMC2       74.1247   59.7260   45.5858 dc         1 CLA      0.052100
     71 HMC1       75.8437   59.1886   45.5258 dc         1 CLA      0.052100
     72 HMB3       81.9357   62.6965   41.9388 dc         1 CLA      0.063600
     73 HMB2       82.5372   61.3802   40.8481 dc         1 CLA      0.063600
     74 HMB1       81.7343   62.7332   40.1481 dc         1 CLA      0.063600
     75 HMA3       82.5012   57.5358   36.3178 dc         1 CLA      0.058300
     76 HMA2       82.8416   58.7858   37.3169 dc         1 CLA      0.058300
     77 HMA1       81.8728   57.4890   38.0164 dc         1 CLA      0.058300
     78 HED3       80.0650   53.9914   35.2081 dc         1 CLA      0.079300
     79 HED2       79.1846   53.0399   36.4634 dc         1 CLA      0.079300
     80 HED1       78.8954   52.8551   34.7486 dc         1 CLA      0.079300
     81 HBC3       72.0621   56.3645   44.3958 dc         1 CLA      0.016300
     82 HBC2       72.3773   55.9306   42.8001 dc         1 CLA      0.016300
     83 HBC1       73.7121   56.0924   44.0312 dc         1 CLA      0.016300
     84 HBB2       81.0983   61.9625   45.4362 da         1 CLA      0.183000
     85 HBB1       81.7204   60.9438   44.0400 da         1 CLA      0.183000
     86 HBA2       80.7794   59.0545   32.7636 dc         1 CLA      0.029400
     87 HBA1       81.7490   59.0678   34.3046 dc         1 CLA      0.029400
     88 HAC2       72.6775   58.4811   44.3535 dc         1 CLA      0.029300
     89 HAC1       72.0899   58.3182   42.6527 dc         1 CLA      0.029300
     90 HAA2       78.8874   57.9664   34.1123 dc         1 CLA      0.028700
     91 HAA1       79.3083   59.6052   34.5612 dc         1 CLA      0.028700
     92 H203       86.7960   57.9398   49.7697 dc         1 CLA      0.065600
     93 H202       86.4124   56.2315   49.3575 dc         1 CLA      0.065600
     94 H201       87.9359   57.0642   48.7752 dc         1 CLA      0.065600
     95 H193       84.3775   57.9078   49.0763 dc         1 CLA      0.065600
     96 H192       83.9192   57.8708   47.2588 dc         1 CLA      0.065600
     97 H191       84.4278   56.4753   48.2261 dc         1 CLA      0.065600
     98 H172       85.6112   57.2498   45.8254 dc         1 CLA      0.027600
     99 H171       86.5783   55.9850   46.5419 dc         1 CLA      0.027600
    100 H162       88.5628   57.4915   46.2993 dc         1 CLA      0.002900
    101 H161       87.6117   58.9861   45.8863 dc         1 CLA      0.002900
    102 H152       86.9432   57.1612   43.9948 dc         1 CLA      0.029100
    103 H151       88.4505   56.4214   44.4525 dc         1 CLA      0.029100
    104 H143       89.9278   59.3794   44.8840 dc         1 CLA      0.063600
    105 H142       90.5808   57.8793   44.1394 dc         1 CLA      0.063600
    106 H141       90.7013   59.1788   43.2237 dc         1 CLA      0.063600
    107 H122       89.4582   57.0049   41.7646 dc         1 CLA      0.032500
    108 H121       89.0978   58.7536   41.4212 dc         1 CLA      0.032500
    109 H112       86.7307   58.3109   41.1428 dc         1 CLA      0.006600
    110 H111       86.9812   56.6313   41.8715 dc         1 CLA      0.006600
    111 H102       88.0867   55.9102   39.9083 dc         1 CLA      0.024100
    112 H101       88.3753   57.5548   39.3472 dc         1 CLA      0.024100
    113 HHD        73.0871   57.1412   40.6658 da         1 CLA      0.174300
    114 HHC        77.3967   60.8279   43.7817 da         1 CLA      0.136800
    115 HHB        81.4545   60.5316   38.8229 da         1 CLA      0.138300
    116 HBD        76.6970   57.2300   34.4955 dc         1 CLA      0.107700
    117 HAB        79.1026   62.7313   44.0979 da         1 CLA      0.155200
    118 H93        84.7949   57.9402   37.8750 dc         1 CLA      0.069500
    119 H92        85.5069   58.8610   39.2761 dc         1 CLA      0.069500
    120 H91        86.3760   58.5579   37.7763 dc         1 CLA      0.069500
    121 H8         85.5901   56.3285   39.7787 dc         1 CLA      0.029300
    122 H72        86.8758   54.8501   38.1332 dc         1 CLA      0.044400
    123 H71        86.9255   56.1549   37.0340 dc         1 CLA      0.044400
    124 H62        84.4904   56.1493   36.7979 dc         1 CLA      0.015600
    125 H61        84.5093   55.0173   38.1006 dc         1 CLA      0.015600
    126 H52        85.9828   53.4563   36.4809 dc         1 CLA      0.033200
    127 H51        85.9178   54.7039   35.2707 dc         1 CLA      0.033200
    128 H43        84.6586   51.8144   34.5924 dc         1 CLA      0.037000
    129 H42        84.4114   51.5501   36.2984 dc         1 CLA      0.037000
    130 H41        82.9474   51.9400   35.3707 dc         1 CLA      0.037000
    131 H3A        80.9764   59.9030   36.3899 dc         1 CLA      0.041100
    132 H2A        80.1384   57.0133   36.0720 dc         1 CLA      0.083100
    133 H2         82.3161   54.4689   36.2713 da         1 CLA      0.180900
    134 H18        86.1865   58.7842   47.5570 dc         1 CLA     -0.003900
    135 H13        88.0572   59.1818   43.3413 dc         1 CLA      0.019700
    136 H12        81.8509   54.5582   33.6760 dc         1 CLA      0.120400
    137 H11        83.5165   55.2889   33.4971 dc         1 CLA      0.120400
    138 C1         68.5362   61.7770   50.7664 Z1         2 LUT      0.509236
    139 C2         68.3852   62.9361   51.7713 Z2         2 LUT     -0.434695
    140 C3         67.1622   63.8281   51.6728 Z3         2 LUT      0.437453
    141 O3         67.5090   65.0268   52.3254 S1         2 LUT     -0.547129
    142 C4         66.6834   63.9373   50.2369 Z4         2 LUT     -0.468603
    143 C5         67.5106   63.3666   49.0920 Z5         2 LUT      0.279246
    144 C6         68.3631   62.2669   49.2651 Z6         2 LUT     -0.305473
    145 C7         69.4131   61.7912   48.2577 Z7         2 LUT      0.069402
    146 C8         70.2307   62.4643   47.3727 Z8         2 LUT     -0.191631
    147 C9         71.1597   61.9732   46.4131 Z9         2 LUT      0.196698
    148 C10        71.8225   62.9092   45.7256 Y1         2 LUT     -0.208611
    149 C11        72.5336   62.8456   44.4525 Y2         2 LUT      0.030784
    150 C12        73.5397   63.6754   44.1428 Y3         2 LUT     -0.220316
    151 C13        74.5568   63.5656   43.0719 Y4         2 LUT      0.215937
    152 C14        75.7442   64.2281   43.1707 Y5         2 LUT     -0.185793
    153 C15        76.8609   64.1603   42.2430 Y6         2 LUT     -0.057835
    154 C16        67.6119   60.5703   51.0190 Y7         2 LUT     -0.405615
    155 C17        70.0127   61.2696   50.9384 Y7         2 LUT     -0.405615
    156 C18        67.4081   64.2676   47.9160 Y9         2 LUT     -0.369639
    157 C19        70.7725   60.5367   45.8382 W1         2 LUT     -0.333362
    158 C20        74.2954   62.5953   41.9583 W2         2 LUT     -0.323439
    159 C21        88.3483   65.6058   35.9079 Z1         2 LUT      0.406104
    160 C22        89.0784   64.9009   34.6537 Z2         2 LUT     -0.404965
    161 C23        89.5107   65.9230   33.5798 Z3         2 LUT      0.391255
    162 O23        90.3219   65.2175   32.6010 S1         2 LUT     -0.528210
    163 C24        88.2477   66.7421   33.1546 W6         2 LUT     -0.258361
    164 C25        87.1329   66.9290   33.8770 Z5         2 LUT      0.133546
    165 C26        86.9690   66.1557   35.2973 W8         2 LUT     -0.147008
    166 C27        86.0241   66.7980   36.3197 Z7         2 LUT      0.023843
    167 C28        84.8235   66.3396   36.7838 Z8         2 LUT     -0.216987
    168 C29        84.1536   66.6259   38.0505 Z9         2 LUT      0.206524
    169 C30        83.0159   65.8975   38.4225 Y1         2 LUT     -0.215556
    170 C31        82.1074   66.1462   39.5356 Y2         2 LUT      0.025142
    171 C32        81.0700   65.2891   39.9050 Y3         2 LUT     -0.212209
    172 C33        80.2411   65.5064   41.0927 Y4         2 LUT      0.240937
    173 C34        79.0977   64.7378   41.3608 Y5         2 LUT     -0.218862
    174 C35        78.0095   64.9032   42.3630 Y6         2 LUT     -0.023547
    175 C36        89.3167   66.6806   36.5877 Y7         2 LUT     -0.393485
    176 C37        88.1673   64.4340   36.9380 Y7         2 LUT     -0.393485
    177 C38        86.0133   67.7734   33.3647 Y9         2 LUT     -0.387526
    178 C39        84.6550   67.6599   39.0285 W1         2 LUT     -0.322618
    179 C40        80.8198   66.3869   42.1391 W2         2 LUT     -0.358472
    180 H403       80.2187   66.2807   42.9951 R7         2 LUT      0.097720
    181 H402       81.8416   66.0654   42.4504 R7         2 LUT      0.097720
    182 H401       80.7927   67.3947   41.7586 R7         2 LUT      0.097720
    183 H393       83.8312   68.4153   39.1394 R4         2 LUT      0.082505
    184 H392       84.9776   67.2436   39.9838 R4         2 LUT      0.082505
    185 H391       85.5109   68.3052   38.6583 R4         2 LUT      0.082505
    186 H383       85.5525   68.2424   34.2899 R1         2 LUT      0.104030
    187 H382       86.2174   68.6448   32.6777 R1         2 LUT      0.104030
    188 H381       85.3093   67.1486   32.8434 R1         2 LUT      0.104030
    189 H373       89.1331   64.0502   37.2245 T4         2 LUT      0.089537
    190 H372       87.7016   64.8269   37.8364 T4         2 LUT      0.089537
    191 H371       87.6681   63.5885   36.5207 T4         2 LUT      0.089537
    192 H363       89.5040   67.6327   36.1472 T4         2 LUT      0.089537
    193 H362       88.8586   66.9538   37.5525 T4         2 LUT      0.089537
    194 H361       90.2258   66.2954   36.9744 T4         2 LUT      0.089537
    195 H222       89.8979   64.3013   35.0650 U2         2 LUT      0.127376
    196 H221       88.4248   64.0926   34.2581 U2         2 LUT      0.127376
    197 H203       73.7338   63.0573   41.0786 R7         2 LUT      0.087068
    198 H202       75.0954   62.1033   41.5731 R7         2 LUT      0.087068
    199 H201       73.6831   61.7900   42.3521 R7         2 LUT      0.087068
    200 H193       71.3093   60.4422   44.9043 R4         2 LUT      0.089716
    201 H192       71.0987   59.6856   46.5317 R4         2 LUT      0.089716
    202 H191       69.7635   60.3758   45.5646 R4         2 LUT      0.089716
    203 H183       67.9896   65.2198   48.0690 R1         2 LUT      0.094572
    204 H182       67.9136   63.8049   47.1083 R1         2 LUT      0.094572
    205 H181       66.3887   64.6401   47.6639 R1         2 LUT      0.094572
    206 H173       70.7459   62.0479   50.6060 T4         2 LUT      0.093752
    207 H172       70.2267   61.1804   51.9787 T4         2 LUT      0.093752
    208 H171       70.1756   60.3307   50.4354 T4         2 LUT      0.093752
    209 H163       68.0307   59.7658   50.4882 T4         2 LUT      0.093752
    210 H162       67.5901   60.2960   52.0844 T4         2 LUT      0.093752
    211 H161       66.6229   60.8941   50.8416 T4         2 LUT      0.093752
    212 HO3        66.8385   65.3883   52.8611 Q1         2 LUT      0.300121
    213 H8         70.1227   63.5239   47.5274 U7         2 LUT      0.080784
    214 H7         69.4656   60.6935   48.2742 U6         2 LUT      0.042190
    215 H42        65.6250   63.5264   50.2467 U5         2 LUT      0.145166
    216 H41        66.3836   64.9629   50.0182 U5         2 LUT      0.145166
    217 H35        78.1521   65.6093   43.2237 T3         2 LUT      0.077919
    218 H34        78.9278   63.9524   40.5980 T2         2 LUT      0.073626
    219 H32        80.8503   64.4023   39.2651 T1         2 LUT      0.092510
    220 H31        82.2437   66.9727   40.1753 U9         2 LUT      0.070048
    221 H30        82.6065   65.2301   37.6559 U8         2 LUT      0.085442
    222 H3         66.3657   63.1733   52.1603 U3         2 LUT     -0.031596
    223 H28        84.4543   65.4737   36.2769 U7         2 LUT      0.084728
    224 H27        86.4922   67.5277   37.0409 U6         2 LUT      0.087291
    225 H26        86.5253   65.2340   35.0118 Q6         2 LUT      0.075325
    226 H24        88.3804   67.2124   32.1833 Q5         2 LUT      0.094482
    227 H23        90.2740   66.5637   33.9947 U3         2 LUT     -0.024869
    228 H22        68.1920   62.5511   52.6570 U2         2 LUT      0.127376
    229 H21        69.2524   63.6431   51.8030 U2         2 LUT      0.127376
    230 H15        76.8197   63.5615   41.2645 T3         2 LUT      0.093200
    231 H14        75.8704   64.7492   44.1044 T2         2 LUT      0.068865
    232 H12        73.5972   64.4501   44.9092 T1         2 LUT      0.095507
    233 H11        72.2177   62.0379   43.8776 U9         2 LUT      0.068930
    234 H10        71.9296   63.8818   46.1678 U8         2 LUT      0.083911
    235 H1         89.7092   64.8722   31.8564 Q1         2 LUT      0.297311
@<TRIPOS>BOND
    1     6     1 1
    2     7     2 1
    3     8     3 1
    4     9     4 1
    5    11     4 1
    6    12     6 1
    7    13     9 1
    8    16     9 1
    9    25     5 1
   10    25    16 1
   11    26    10 1
   12    26    17 1
   13    27    18 1
   14    28    14 1
   15    28    19 1
   16    29    12 1
   17    30    13 1
   18    31    24 1
   19    32     1 1
   20    32    25 1
   21    33    21 1
   22    33    26 1
   23    34    22 1
   24    34    27 1
   25    35    23 1
   26    35    28 1
   27    36    12 1
   28    36    24 1
   29    37    13 1
   30    37    15 1
   31    38    31 1
   32    39    20 1
   33    39    32 1
   34    40     2 1
   35    40    33 1
   36    41     3 1
   37    41    34 1
   38    42     4 1
   39    42    35 1
   40    43    38 1
   41    44     5 1
   42    44    17 1
   43    44    39 1
   44    45    10 1
   45    45    18 1
   46    45    40 1
   47    46    19 1
   48    46    41 1
   49    47    14 1
   50    47    16 1
   51    47    42 1
   52    48    38 1
   53    49    48 1
   54    50    49 1
   55    51    50 1
   56    52    51 1
   57    53    51 1
   58    54    53 1
   59    55    54 1
   60    56    55 1
   61    57    56 1
   62    58    56 1
   63    59    58 1
   64    60    59 1
   65    61    60 1
   66    62    61 1
   67    63    61 1
   68    64    27 1
   69    64    46 1
   70    65     5 1
   71    65    10 1
   72    65    64 1
   73    65    14 1
   74    66    23 1
   75    67    23 1
   76    68    23 1
   77    69    22 1
   78    70    22 1
   79    71    22 1
   80    72    21 1
   81    73    21 1
   82    74    21 1
   83    75    20 1
   84    76    20 1
   85    77    20 1
   86    78    15 1
   87    79    15 1
   88    80    15 1
   89    81     8 1
   90    82     8 1
   91    83     8 1
   92    84     7 1
   93    85     7 1
   94    86     6 1
   95    87     6 1
   96    88     3 1
   97    89     3 1
   98    90     1 1
   99    91     1 1
  100    92    63 1
  101    93    63 1
  102    94    63 1
  103    95    62 1
  104    96    62 1
  105    97    62 1
  106    98    60 1
  107    99    60 1
  108   100    59 1
  109   101    59 1
  110   102    58 1
  111   103    58 1
  112   104    57 1
  113   105    57 1
  114   106    57 1
  115   107    55 1
  116   108    55 1
  117   109    54 1
  118   110    54 1
  119   111    53 1
  120   112    53 1
  121   113    19 1
  122   114    18 1
  123   115    17 1
  124   116     9 1
  125   117     2 1
  126   118    52 1
  127   119    52 1
  128   120    52 1
  129   121    51 1
  130   122    50 1
  131   123    50 1
  132   124    49 1
  133   125    49 1
  134   126    48 1
  135   127    48 1
  136   128    43 1
  137   129    43 1
  138   130    43 1
  139   131    39 1
  140   132    32 1
  141   133    31 1
  142   134    61 1
  143   135    56 1
  144   136    24 1
  145   137    24 1
  146   139   138 1
  147   140   139 1
  148   141   140 1
  149   142   140 1
  150   143   142 1
  151   144   138 1
  152   144   143 1
  153   145   144 1
  154   146   145 1
  155   147   146 1
  156   148   147 1
  157   149   148 1
  158   150   149 1
  159   151   150 1
  160   152   151 1
  161   153   152 1
  162   154   138 1
  163   155   138 1
  164   156   143 1
  165   157   147 1
  166   158   151 1
  167   160   159 1
  168   161   160 1
  169   162   161 1
  170   163   161 1
  171   164   163 1
  172   165   159 1
  173   165   164 1
  174   166   165 1
  175   167   166 1
  176   168   167 1
  177   169   168 1
  178   170   169 1
  179   171   170 1
  180   172   171 1
  181   173   172 1
  182   174   153 1
  183   174   173 1
  184   175   159 1
  185   176   159 1
  186   177   164 1
  187   178   168 1
  188   179   172 1
  189   180   179 1
  190   181   179 1
  191   182   179 1
  192   183   178 1
  193   184   178 1
  194   185   178 1
  195   186   177 1
  196   187   177 1
  197   188   177 1
  198   189   176 1
  199   190   176 1
  200   191   176 1
  201   192   175 1
  202   193   175 1
  203   194   175 1
  204   195   160 1
  205   196   160 1
  206   197   158 1
  207   198   158 1
  208   199   158 1
  209   200   157 1
  210   201   157 1
  211   202   157 1
  212   203   156 1
  213   204   156 1
  214   205   156 1
  215   206   155 1
  216   207   155 1
  217   208   155 1
  218   209   154 1
  219   210   154 1
  220   211   154 1
  221   212   141 1
  222   213   146 1
  223   214   145 1
  224   215   142 1
  225   216   142 1
  226   217   174 1
  227   218   173 1
  228   219   171 1
  229   220   170 1
  230   221   169 1
  231   222   140 1
  232   223   167 1
  233   224   166 1
  234   225   165 1
  235   226   163 1
  236   227   161 1
  237   228   139 1
  238   229   139 1
  239   230   153 1
  240   231   152 1
  241   232   150 1
  242   233   149 1
  243   234   148 1
  244   235   162 1
  245   65    153 1
  246   65    174 1
@<TRIPOS>SUBSTRUCTURE
      1 CLA               1 ****               0 ****  **** 
      2 LUT             138 ****               0 ****  **** 
