@<TRIPOS>MOLECULE
Cpptraj generated mol2 file.
  235   246     2     0     0
SMALL
USER_CHARGES


@<TRIPOS>ATOM
      1 CAA        79.8470   58.0908   35.1714 a2         1 CLA     -0.055900
      2 CAB        79.8547   62.0072   44.1876 c8         1 CLA     -0.148500
      3 CAC        72.6206   57.9299   43.2717 a2         1 CLA     -0.012600
      4 CAD        75.5267   55.7126   36.2972 ck         1 CLA      0.398800
      5 NA         78.7573   58.6477   38.6445 ns         1 CLA     -0.225500
      6 CBA        81.1251   57.9337   34.3120 a2         1 CLA     -0.135000
      7 CBB        79.5482   61.4017   45.3663 c0         1 CLA     -0.395200
      8 CBC        72.9280   56.5201   43.7547 a3         1 CLA     -0.037700
      9 CBD        77.1121   56.1185   36.1911 a1         1 CLA     -0.053900
     10 NB         78.5855   60.2242   41.1300 nm         1 CLA     -0.295700
     11 OBD        74.8738   54.9761   35.5290 o2         1 CLA     -0.494600
     12 CGA        81.4679   56.4543   34.1347 c4         1 CLA      0.827000
     13 CGD        77.9377   54.9303   36.1457 c4         1 CLA      0.655300
     14 ND         75.8227   57.7701   39.1132 nm         1 CLA     -0.291600
     15 CED        79.0471   53.2599   37.4960 a3         1 CLA      0.005400
     16 CHA        77.4096   57.0870   37.3237 cs         1 CLA     -0.123800
     17 CHB        80.5118   60.1287   39.5638 aa         1 CLA     -0.291900
     18 CHC        77.3087   60.2044   43.1149 aa         1 CLA     -0.090400
     19 CHD        73.8477   57.7349   40.5869 aa         1 CLA     -0.052000
     20 CMA        82.1776   58.1588   37.8916 a3         1 CLA     -0.230700
     21 CMB        81.8476   61.9878   41.7062 a3         1 CLA     -0.180800
     22 CMC        74.8641   59.6353   45.0677 a3         1 CLA     -0.134000
     23 CMD        72.5427   55.9881   38.3029 a3         1 CLA     -0.141100
     24 C1         82.4890   54.5428   35.1636 a2         1 CLA      0.023000
     25 C1A        78.6474   57.8146   37.5402 ac         1 CLA     -0.015100
     26 C1B        79.8881   60.6039   40.7430 cr         1 CLA      0.054700
     27 C1C        76.0978   59.4939   42.7581 cn         1 CLA     -0.005600
     28 C1D        74.4807   57.4313   39.3554 ap         1 CLA     -0.047300
     29 O1A        81.2799   55.7939   33.1186 o2         1 CLA     -0.610800
     30 O1D        78.7869   54.6686   35.2603 o2         1 CLA     -0.558200
     31 C2         82.9532   54.3081   36.5647 c8         1 CLA     -0.325100
     32 C2A        79.9381   57.7339   36.7423 a1         1 CLA      0.098600
     33 C2B        80.4980   61.4064   41.8057 cb         1 CLA      0.088500
     34 C2C        74.9329   59.2580   43.6614 cb         1 CLA      0.053700
     35 C2D        73.9894   56.5728   38.3276 cb         1 CLA      0.058900
     36 O2A        82.1308   55.9661   35.2168 o1         1 CLA     -0.437200
     37 O2D        77.9667   54.2207   37.3709 o1         1 CLA     -0.357600
     38 C3         84.0794   53.6928   37.0314 c5         1 CLA      0.031200
     39 C3A        80.8439   58.7596   37.4968 a1         1 CLA      0.166800
     40 C3B        79.5813   61.3646   42.8394 cb         1 CLA      0.035000
     41 C3C        73.8796   58.6584   42.8836 cb         1 CLA     -0.089900
     42 C3D        75.1226   56.3748   37.5339 cb         1 CLA     -0.035900
     43 C4         84.3057   52.2656   37.5198 a3         1 CLA     -0.053300
     44 C4A        79.9537   59.2351   38.6681 ac         1 CLA      0.001800
     45 C4B        78.4443   60.5393   42.4084 cn         1 CLA     -0.020900
     46 C4C        74.4473   58.4790   41.6107 cr         1 CLA     -0.044400
     47 C4D        76.2349   57.1046   38.0637 c6         1 CLA     -0.046000
     48 C5         85.2592   54.6569   37.1264 a2         1 CLA     -0.070400
     49 C6         85.2865   55.4900   38.4329 a2         1 CLA      0.043900
     50 C7         86.7864   55.7984   38.8017 a2         1 CLA     -0.150000
     51 C8         86.8925   56.6786   40.0688 a1         1 CLA      0.064200
     52 C9         86.1517   58.0474   39.9523 a3         1 CLA     -0.259300
     53 C10        88.3386   56.8852   40.4099 a2         1 CLA     -0.071900
     54 C11        88.7907   57.1427   41.8996 a2         1 CLA      0.014500
     55 C12        88.2267   56.1475   42.9053 a2         1 CLA     -0.112100
     56 C13        88.6929   56.1525   44.3964 a1         1 CLA      0.089200
     57 C14        88.5069   54.7419   44.9671 a3         1 CLA     -0.239100
     58 C15        87.9701   57.2701   45.2789 a2         1 CLA     -0.102200
     59 C16        88.5142   57.3713   46.6811 a2         1 CLA      0.023900
     60 C17        88.1081   58.7191   47.3731 a2         1 CLA     -0.105700
     61 C18        86.5787   59.1021   47.5316 a1         1 CLA      0.206800
     62 C19        85.8024   58.0008   48.3855 a3         1 CLA     -0.280100
     63 C20        86.4037   60.4477   48.0673 a3         1 CLA     -0.280100
     64 NC         75.7685   59.0117   41.5526 nx         1 CLA     -0.309200
     65 MG         77.2365   59.0984   40.0800 mg         1 CLA      0.895000
     66 HMD3       72.3293   55.4043   37.4517 dc         1 CLA      0.064300
     67 HMD2       72.3862   55.3790   39.1463 dc         1 CLA      0.064300
     68 HMD1       71.8763   56.8206   38.4616 dc         1 CLA      0.064300
     69 HMC3       74.9447   60.7379   45.1669 dc         1 CLA      0.052100
     70 HMC2       73.9035   59.4108   45.4503 dc         1 CLA      0.052100
     71 HMC1       75.5683   59.2117   45.7717 dc         1 CLA      0.052100
     72 HMB3       82.3030   62.3168   40.7377 dc         1 CLA      0.063600
     73 HMB2       81.8223   62.9585   42.2655 dc         1 CLA      0.063600
     74 HMB1       82.5534   61.2413   42.2171 dc         1 CLA      0.063600
     75 HMA3       82.8785   58.8744   38.3190 dc         1 CLA      0.058300
     76 HMA2       81.9569   57.4766   38.6689 dc         1 CLA      0.058300
     77 HMA1       82.6853   57.6843   37.0375 dc         1 CLA      0.058300
     78 HED3       79.0771   52.4832   36.6862 dc         1 CLA      0.079300
     79 HED2       79.9935   53.6601   37.6993 dc         1 CLA      0.079300
     80 HED1       78.7198   52.7356   38.4388 dc         1 CLA      0.079300
     81 HBC3       72.1190   55.9631   44.2551 dc         1 CLA      0.016300
     82 HBC2       73.1382   55.8352   42.8844 dc         1 CLA      0.016300
     83 HBC1       73.8056   56.5483   44.3588 dc         1 CLA      0.016300
     84 HBB2       79.7863   61.9032   46.3055 da         1 CLA      0.183000
     85 HBB1       79.1636   60.3585   45.3938 da         1 CLA      0.183000
     86 HBA2       80.8040   58.3966   33.3470 dc         1 CLA      0.029400
     87 HBA1       81.9159   58.4815   34.8539 dc         1 CLA      0.029400
     88 HAC2       72.1425   58.5067   44.0412 dc         1 CLA      0.029300
     89 HAC1       71.9051   57.9776   42.4371 dc         1 CLA      0.029300
     90 HAA2       79.1606   57.3215   34.8197 dc         1 CLA      0.028700
     91 HAA1       79.3972   59.0869   34.9625 dc         1 CLA      0.028700
     92 H203       86.4538   60.5016   49.1543 dc         1 CLA      0.065600
     93 H202       87.1589   61.1666   47.7239 dc         1 CLA      0.065600
     94 H201       85.4018   60.8230   47.8049 dc         1 CLA      0.065600
     95 H193       85.9702   57.0765   47.7820 dc         1 CLA      0.065600
     96 H192       86.2604   57.9561   49.3695 dc         1 CLA      0.065600
     97 H191       84.7320   58.2811   48.2397 dc         1 CLA      0.065600
     98 H172       88.4440   58.7702   48.3763 dc         1 CLA      0.027600
     99 H171       88.6578   59.5450   46.9419 dc         1 CLA      0.027600
    100 H162       88.0413   56.5644   47.2441 dc         1 CLA      0.002900
    101 H161       89.5576   57.1199   46.6606 dc         1 CLA      0.002900
    102 H152       88.1476   58.2474   44.8142 dc         1 CLA      0.029100
    103 H151       86.9549   57.1571   45.4565 dc         1 CLA      0.029100
    104 H143       87.4218   54.5207   44.9973 dc         1 CLA      0.063600
    105 H142       88.9751   53.9743   44.3215 dc         1 CLA      0.063600
    106 H141       88.9422   54.7285   45.8950 dc         1 CLA      0.063600
    107 H122       87.2118   56.3402   43.1047 dc         1 CLA      0.032500
    108 H121       88.4302   55.2127   42.4213 dc         1 CLA      0.032500
    109 H112       89.8781   57.1006   41.8876 dc         1 CLA      0.006600
    110 H111       88.4671   58.1292   42.1914 dc         1 CLA      0.006600
    111 H102       88.8692   56.0108   40.1570 dc         1 CLA      0.024100
    112 H101       88.8196   57.6491   39.7656 dc         1 CLA      0.024100
    113 HHD        72.8547   57.2335   40.6679 da         1 CLA      0.174300
    114 HHC        77.2936   60.6309   44.1364 da         1 CLA      0.136800
    115 HHB        81.5835   60.2872   39.5982 da         1 CLA      0.138300
    116 HBD        77.2951   56.5623   35.1934 dc         1 CLA      0.107700
    117 HAB        80.3850   62.9433   44.3018 da         1 CLA      0.155200
    118 H93        86.2777   58.5005   38.9698 dc         1 CLA      0.069500
    119 H92        85.0463   57.8936   40.2101 dc         1 CLA      0.069500
    120 H91        86.6299   58.6688   40.6984 dc         1 CLA      0.069500
    121 H8         86.4563   56.1563   40.8654 dc         1 CLA      0.029300
    122 H72        87.3918   54.8808   38.9806 dc         1 CLA      0.044400
    123 H71        87.2303   56.3752   37.9737 dc         1 CLA      0.044400
    124 H62        84.7283   56.3264   38.3380 dc         1 CLA      0.015600
    125 H61        84.8584   54.9724   39.2581 dc         1 CLA      0.015600
    126 H52        86.1727   54.2205   36.8183 dc         1 CLA      0.033200
    127 H51        85.0650   55.3938   36.4113 dc         1 CLA      0.033200
    128 H43        85.0128   51.6319   36.9029 dc         1 CLA      0.037000
    129 H42        84.5040   52.2162   38.6139 dc         1 CLA      0.037000
    130 H41        83.2829   51.9623   37.3485 dc         1 CLA      0.037000
    131 H3A        81.0816   59.6199   36.8745 dc         1 CLA      0.041100
    132 H2A        80.1983   56.6920   36.9467 dc         1 CLA      0.083100
    133 H2         82.2752   54.8253   37.2788 da         1 CLA      0.180900
    134 H18        86.1667   59.0812   46.5240 dc         1 CLA     -0.003900
    135 H13        89.7774   56.2777   44.4091 dc         1 CLA      0.019700
    136 H12        81.6667   53.8767   34.9943 dc         1 CLA      0.120400
    137 H11        83.2735   54.3146   34.5064 dc         1 CLA      0.120400
    138 C1         69.4473   61.4734   50.4256 Z1         2 LUT      0.509236
    139 C2         67.9992   61.3420   50.9690 Z2         2 LUT     -0.434695
    140 C3         67.1681   62.6481   51.3077 Z3         2 LUT      0.437453
    141 O3         67.2205   62.9481   52.7400 S1         2 LUT     -0.547129
    142 C4         67.7479   63.8350   50.5961 Z4         2 LUT     -0.468603
    143 C5         68.5588   63.4987   49.3382 Z5         2 LUT      0.279246
    144 C6         69.4979   62.5108   49.3080 Z6         2 LUT     -0.305473
    145 C7         69.9500   62.0074   48.0555 Z7         2 LUT      0.069402
    146 C8         70.8426   62.5308   47.1776 Z8         2 LUT     -0.191631
    147 C9         71.3565   62.0608   45.8549 Z9         2 LUT      0.196698
    148 C10        72.4667   62.6885   45.3764 Y1         2 LUT     -0.208611
    149 C11        73.1053   62.4240   44.1270 Y2         2 LUT      0.030784
    150 C12        74.1972   63.1064   43.6846 Y3         2 LUT     -0.220316
    151 C13        75.0082   63.0369   42.5053 Y4         2 LUT      0.215937
    152 C14        76.2286   63.7437   42.5995 Y5         2 LUT     -0.185793
    153 C15        77.3509   63.7667   41.6704 Y6         2 LUT     -0.057835
    154 C16        69.8633   60.0134   50.0364 Y7         2 LUT     -0.405615
    155 C17        70.2152   61.9353   51.7037 Y7         2 LUT     -0.405615
    156 C18        68.0874   64.2654   48.1063 Y9         2 LUT     -0.369639
    157 C19        70.6098   61.0833   45.0616 W1         2 LUT     -0.333362
    158 C20        74.3497   62.5040   41.2689 W2         2 LUT     -0.323439
    159 C21        88.8461   65.4617   35.6898 Z1         2 LUT      0.406104
    160 C22        89.5391   64.7567   34.4627 Z2         2 LUT     -0.404965
    161 C23        89.6755   65.7543   33.2931 Z3         2 LUT      0.391255
    162 O23        90.4511   65.2027   32.2047 S1         2 LUT     -0.528210
    163 C24        88.5118   66.5375   32.9757 W6         2 LUT     -0.258361
    164 C25        87.4400   66.6297   33.8110 Z5         2 LUT      0.133546
    165 C26        87.4255   65.7657   35.1263 W8         2 LUT     -0.147008
    166 C27        86.5981   66.4522   36.1920 Z7         2 LUT      0.023843
    167 C28        85.5034   65.9686   36.8434 Z8         2 LUT     -0.216987
    168 C29        84.8257   66.4445   38.0116 Z9         2 LUT      0.206524
    169 C30        83.7253   65.7314   38.4842 Y1         2 LUT     -0.215556
    170 C31        82.8695   65.8093   39.6133 Y2         2 LUT      0.025142
    171 C32        81.7221   65.1281   39.7855 Y3         2 LUT     -0.212209
    172 C33        80.8369   64.9997   40.9649 Y4         2 LUT      0.240937
    173 C34        79.5781   64.3836   40.7906 Y5         2 LUT     -0.218862
    174 C35        78.5376   64.4183   41.7821 Y6         2 LUT     -0.023547
    175 C36        89.7336   66.6273   36.1244 Y7         2 LUT     -0.393485
    176 C37        88.9655   64.4135   36.8190 Y7         2 LUT     -0.393485
    177 C38        86.1730   67.3100   33.3810 Y9         2 LUT     -0.387526
    178 C39        85.5119   67.5108   38.8386 W1         2 LUT     -0.322618
    179 C40        81.3031   65.6105   42.3265 W2         2 LUT     -0.358472
    180 H403       80.8235   65.0943   43.1689 R7         2 LUT      0.097720
    181 H402       82.3811   65.4448   42.4230 R7         2 LUT      0.097720
    182 H401       81.3499   66.7065   42.3143 R7         2 LUT      0.097720
    183 H393       85.7777   68.3788   38.3049 R4         2 LUT      0.082505
    184 H392       84.8320   67.7637   39.6360 R4         2 LUT      0.082505
    185 H391       86.3143   67.0084   39.3031 R4         2 LUT      0.082505
    186 H383       85.7237   68.0726   34.0412 R1         2 LUT      0.104030
    187 H382       86.1310   67.6879   32.3695 R1         2 LUT      0.104030
    188 H381       85.3738   66.5015   33.4288 R1         2 LUT      0.104030
    189 H373       90.0040   64.1981   37.1098 T4         2 LUT      0.089537
    190 H372       88.4683   64.8017   37.7122 T4         2 LUT      0.089537
    191 H371       88.4859   63.4662   36.6618 T4         2 LUT      0.089537
    192 H363       89.3271   66.8921   37.0603 T4         2 LUT      0.089537
    193 H362       90.7170   66.3268   36.4329 T4         2 LUT      0.089537
    194 H361       89.7326   67.5303   35.4741 T4         2 LUT      0.089537
    195 H222       90.5381   64.4090   34.6391 U2         2 LUT      0.127376
    196 H221       88.9637   63.8643   34.1960 U2         2 LUT      0.127376
    197 H203       73.4426   62.9757   41.0566 R7         2 LUT      0.087068
    198 H202       75.0363   62.4867   40.3999 R7         2 LUT      0.087068
    199 H201       74.1433   61.4345   41.3713 R7         2 LUT      0.087068
    200 H193       70.5302   61.3417   43.9599 R4         2 LUT      0.089716
    201 H192       70.9901   60.0818   45.2415 R4         2 LUT      0.089716
    202 H191       69.5763   61.0504   45.4456 R4         2 LUT      0.089716
    203 H183       67.0949   64.5988   48.1908 R1         2 LUT      0.094572
    204 H182       68.8050   65.1458   48.0970 R1         2 LUT      0.094572
    205 H181       68.1052   63.7404   47.1635 R1         2 LUT      0.094572
    206 H173       69.7552   62.8724   52.0700 T4         2 LUT      0.093752
    207 H172       70.0180   61.2610   52.5361 T4         2 LUT      0.093752
    208 H171       71.3133   62.0762   51.6550 T4         2 LUT      0.093752
    209 H163       70.8466   60.0096   49.6340 T4         2 LUT      0.093752
    210 H162       69.9081   59.3489   50.8839 T4         2 LUT      0.093752
    211 H161       69.2859   59.5197   49.3141 T4         2 LUT      0.093752
    212 HO3        66.9148   62.2363   53.2726 Q1         2 LUT      0.300121
    213 H8         71.2646   63.4757   47.6539 U7         2 LUT      0.080784
    214 H7         69.5334   61.0786   47.6167 U6         2 LUT      0.042190
    215 H42        66.9647   64.5972   50.3317 U5         2 LUT      0.145166
    216 H41        68.3678   64.3330   51.3064 U5         2 LUT      0.145166
    217 H35        78.5624   64.9191   42.7547 T3         2 LUT      0.077919
    218 H34        79.3069   63.8242   39.8455 T2         2 LUT      0.073626
    219 H32        81.2908   64.6213   38.8555 T1         2 LUT      0.092510
    220 H31        83.2792   66.4153   40.4053 U9         2 LUT      0.070048
    221 H30        83.3620   64.9081   37.7590 U8         2 LUT      0.085442
    222 H3         66.0680   62.6245   51.0894 U3         2 LUT     -0.031596
    223 H28        85.1254   64.9556   36.5164 U7         2 LUT      0.084728
    224 H27        87.0665   67.3750   36.6551 U6         2 LUT      0.087291
    225 H26        86.9112   64.8747   34.8440 Q6         2 LUT      0.075325
    226 H24        88.5891   67.1221   32.0218 Q5         2 LUT      0.094482
    227 H23        90.3811   66.5119   33.6623 U3         2 LUT     -0.024869
    228 H22        67.5339   60.8696   50.0550 U2         2 LUT      0.127376
    229 H21        67.7541   60.5379   51.6950 U2         2 LUT      0.127376
    230 H15        77.1768   63.2510   40.7054 T3         2 LUT      0.093200
    231 H14        76.4819   64.1624   43.5623 T2         2 LUT      0.068865
    232 H12        74.6053   63.7950   44.4351 T1         2 LUT      0.095507
    233 H11        72.6463   61.6446   43.4847 U9         2 LUT      0.068930
    234 H10        72.9864   63.3757   46.0193 U8         2 LUT      0.083911
    235 H1         89.8806   64.7070   31.5951 Q1         2 LUT      0.297311
@<TRIPOS>BOND
    1     6     1 1
    2     7     2 1
    3     8     3 1
    4     9     4 1
    5    11     4 1
    6    12     6 1
    7    13     9 1
    8    16     9 1
    9    25     5 1
   10    25    16 1
   11    26    10 1
   12    26    17 1
   13    27    18 1
   14    28    14 1
   15    28    19 1
   16    29    12 1
   17    30    13 1
   18    31    24 1
   19    32     1 1
   20    32    25 1
   21    33    21 1
   22    33    26 1
   23    34    22 1
   24    34    27 1
   25    35    23 1
   26    35    28 1
   27    36    12 1
   28    36    24 1
   29    37    13 1
   30    37    15 1
   31    38    31 1
   32    39    20 1
   33    39    32 1
   34    40     2 1
   35    40    33 1
   36    41     3 1
   37    41    34 1
   38    42     4 1
   39    42    35 1
   40    43    38 1
   41    44     5 1
   42    44    17 1
   43    44    39 1
   44    45    10 1
   45    45    18 1
   46    45    40 1
   47    46    19 1
   48    46    41 1
   49    47    14 1
   50    47    16 1
   51    47    42 1
   52    48    38 1
   53    49    48 1
   54    50    49 1
   55    51    50 1
   56    52    51 1
   57    53    51 1
   58    54    53 1
   59    55    54 1
   60    56    55 1
   61    57    56 1
   62    58    56 1
   63    59    58 1
   64    60    59 1
   65    61    60 1
   66    62    61 1
   67    63    61 1
   68    64    27 1
   69    64    46 1
   70    65     5 1
   71    65    10 1
   72    65    64 1
   73    65    14 1
   74    66    23 1
   75    67    23 1
   76    68    23 1
   77    69    22 1
   78    70    22 1
   79    71    22 1
   80    72    21 1
   81    73    21 1
   82    74    21 1
   83    75    20 1
   84    76    20 1
   85    77    20 1
   86    78    15 1
   87    79    15 1
   88    80    15 1
   89    81     8 1
   90    82     8 1
   91    83     8 1
   92    84     7 1
   93    85     7 1
   94    86     6 1
   95    87     6 1
   96    88     3 1
   97    89     3 1
   98    90     1 1
   99    91     1 1
  100    92    63 1
  101    93    63 1
  102    94    63 1
  103    95    62 1
  104    96    62 1
  105    97    62 1
  106    98    60 1
  107    99    60 1
  108   100    59 1
  109   101    59 1
  110   102    58 1
  111   103    58 1
  112   104    57 1
  113   105    57 1
  114   106    57 1
  115   107    55 1
  116   108    55 1
  117   109    54 1
  118   110    54 1
  119   111    53 1
  120   112    53 1
  121   113    19 1
  122   114    18 1
  123   115    17 1
  124   116     9 1
  125   117     2 1
  126   118    52 1
  127   119    52 1
  128   120    52 1
  129   121    51 1
  130   122    50 1
  131   123    50 1
  132   124    49 1
  133   125    49 1
  134   126    48 1
  135   127    48 1
  136   128    43 1
  137   129    43 1
  138   130    43 1
  139   131    39 1
  140   132    32 1
  141   133    31 1
  142   134    61 1
  143   135    56 1
  144   136    24 1
  145   137    24 1
  146   139   138 1
  147   140   139 1
  148   141   140 1
  149   142   140 1
  150   143   142 1
  151   144   138 1
  152   144   143 1
  153   145   144 1
  154   146   145 1
  155   147   146 1
  156   148   147 1
  157   149   148 1
  158   150   149 1
  159   151   150 1
  160   152   151 1
  161   153   152 1
  162   154   138 1
  163   155   138 1
  164   156   143 1
  165   157   147 1
  166   158   151 1
  167   160   159 1
  168   161   160 1
  169   162   161 1
  170   163   161 1
  171   164   163 1
  172   165   159 1
  173   165   164 1
  174   166   165 1
  175   167   166 1
  176   168   167 1
  177   169   168 1
  178   170   169 1
  179   171   170 1
  180   172   171 1
  181   173   172 1
  182   174   153 1
  183   174   173 1
  184   175   159 1
  185   176   159 1
  186   177   164 1
  187   178   168 1
  188   179   172 1
  189   180   179 1
  190   181   179 1
  191   182   179 1
  192   183   178 1
  193   184   178 1
  194   185   178 1
  195   186   177 1
  196   187   177 1
  197   188   177 1
  198   189   176 1
  199   190   176 1
  200   191   176 1
  201   192   175 1
  202   193   175 1
  203   194   175 1
  204   195   160 1
  205   196   160 1
  206   197   158 1
  207   198   158 1
  208   199   158 1
  209   200   157 1
  210   201   157 1
  211   202   157 1
  212   203   156 1
  213   204   156 1
  214   205   156 1
  215   206   155 1
  216   207   155 1
  217   208   155 1
  218   209   154 1
  219   210   154 1
  220   211   154 1
  221   212   141 1
  222   213   146 1
  223   214   145 1
  224   215   142 1
  225   216   142 1
  226   217   174 1
  227   218   173 1
  228   219   171 1
  229   220   170 1
  230   221   169 1
  231   222   140 1
  232   223   167 1
  233   224   166 1
  234   225   165 1
  235   226   163 1
  236   227   161 1
  237   228   139 1
  238   229   139 1
  239   230   153 1
  240   231   152 1
  241   232   150 1
  242   233   149 1
  243   234   148 1
  244   235   162 1
  245   65    153 1
  246   65    174 1
@<TRIPOS>SUBSTRUCTURE
      1 CLA               1 ****               0 ****  **** 
      2 LUT             138 ****               0 ****  **** 
