@<TRIPOS>MOLECULE
Cpptraj generated mol2 file.
  235   246     2     0     0
SMALL
USER_CHARGES


@<TRIPOS>ATOM
      1 CAA        77.9776   59.1545   35.3004 a2         1 CLA     -0.055900
      2 CAB        78.5326   62.5525   44.4267 c8         1 CLA     -0.148500
      3 CAC        71.3631   58.8387   44.1049 a2         1 CLA     -0.012600
      4 CAD        73.7255   56.7728   36.5844 ck         1 CLA      0.398800
      5 NA         77.3006   59.2882   38.8492 ns         1 CLA     -0.225500
      6 CBA        79.1603   59.0731   34.2753 a2         1 CLA     -0.135000
      7 CBB        79.7244   62.9070   44.9293 c0         1 CLA     -0.395200
      8 CBC        71.1361   57.3712   43.9313 a3         1 CLA     -0.037700
      9 CBD        75.1934   57.2419   36.1730 a1         1 CLA     -0.053900
     10 NB         77.2012   60.7455   41.4827 nm         1 CLA     -0.295700
     11 OBD        72.9980   56.0742   35.8758 o2         1 CLA     -0.494600
     12 CGA        79.6889   57.7538   33.7748 c4         1 CLA      0.827000
     13 CGD        76.1897   56.0927   35.7692 c4         1 CLA      0.655300
     14 ND         74.3789   58.7097   39.4937 nm         1 CLA     -0.291600
     15 CED        77.1743   54.0612   36.4085 a3         1 CLA      0.005400
     16 CHA        75.7358   58.0243   37.3698 cs         1 CLA     -0.123800
     17 CHB        79.0267   60.6723   39.7610 aa         1 CLA     -0.291900
     18 CHC        75.9720   60.9846   43.6654 aa         1 CLA     -0.090400
     19 CHD        72.5575   58.5755   41.1459 aa         1 CLA     -0.052000
     20 CMA        80.6017   58.6797   37.9073 a3         1 CLA     -0.230700
     21 CMB        80.3732   62.6531   41.7907 a3         1 CLA     -0.180800
     22 CMC        73.8269   60.3725   45.7533 a3         1 CLA     -0.134000
     23 CMD        71.0959   57.0157   38.9123 a3         1 CLA     -0.141100
     24 C1         81.0153   55.8251   34.1969 a2         1 CLA      0.023000
     25 C1A        76.9944   58.6381   37.6368 ac         1 CLA     -0.015100
     26 C1B        78.4185   61.1368   40.9477 cr         1 CLA      0.054700
     27 C1C        74.7567   60.3503   43.3657 cn         1 CLA     -0.005600
     28 C1D        73.0751   58.3024   39.8844 ap         1 CLA     -0.047300
     29 O1A        79.6002   57.4070   32.6258 o2         1 CLA     -0.610800
     30 O1D        76.6725   55.9448   34.6540 o2         1 CLA     -0.558200
     31 C2         81.5202   55.1762   35.4995 c8         1 CLA     -0.325100
     32 C2A        78.2426   58.5050   36.7608 a1         1 CLA      0.098600
     33 C2B        79.0684   61.9897   41.9535 cb         1 CLA      0.088500
     34 C2C        73.7020   60.1821   44.3138 cb         1 CLA      0.053700
     35 C2D        72.4752   57.4962   38.8689 cb         1 CLA      0.058900
     36 O2A        80.4929   57.1218   34.6583 o1         1 CLA     -0.437200
     37 O2D        76.4437   55.2531   36.7969 o1         1 CLA     -0.357600
     38 C3         82.7537   55.1622   36.0043 c5         1 CLA      0.031200
     39 C3A        79.2842   59.3762   37.5621 a1         1 CLA      0.166800
     40 C3B        78.2767   61.9472   43.1011 cb         1 CLA      0.035000
     41 C3C        72.6726   59.4102   43.5776 cb         1 CLA     -0.089900
     42 C3D        73.4578   57.4117   37.8773 cb         1 CLA     -0.035900
     43 C4         83.6474   54.0447   35.7686 a3         1 CLA     -0.053300
     44 C4A        78.5526   59.7725   38.8541 ac         1 CLA      0.001800
     45 C4B        77.0264   61.2620   42.7563 cn         1 CLA     -0.020900
     46 C4C        73.1785   59.2937   42.2119 cr         1 CLA     -0.044400
     47 C4D        74.5580   58.1452   38.2906 c6         1 CLA     -0.046000
     48 C5         83.0097   56.1222   37.1562 a2         1 CLA     -0.070400
     49 C6         84.3710   56.2600   37.8808 a2         1 CLA      0.043900
     50 C7         84.3601   57.0979   39.1706 a2         1 CLA     -0.150000
     51 C8         84.2894   58.6385   39.0018 a1         1 CLA      0.064200
     52 C9         85.4398   59.1026   38.0457 a3         1 CLA     -0.259300
     53 C10        84.4054   59.4434   40.2791 a2         1 CLA     -0.071900
     54 C11        83.2410   59.3700   41.3247 a2         1 CLA      0.014500
     55 C12        83.4242   60.2832   42.5778 a2         1 CLA     -0.112100
     56 C13        84.7621   60.0581   43.4101 a1         1 CLA      0.089200
     57 C14        84.8822   58.7114   44.1207 a3         1 CLA     -0.239100
     58 C15        84.9208   61.2549   44.3659 a2         1 CLA     -0.102200
     59 C16        83.7158   61.5940   45.3603 a2         1 CLA      0.023900
     60 C17        84.2484   62.7036   46.2702 a2         1 CLA     -0.105700
     61 C18        83.3022   63.2480   47.3912 a1         1 CLA      0.206800
     62 C19        83.4306   62.5736   48.7713 a3         1 CLA     -0.280100
     63 C20        83.4868   64.7865   47.5305 a3         1 CLA     -0.280100
     64 NC         74.4349   59.8578   42.0559 nx         1 CLA     -0.309200
     65 MG         75.8317   59.7097   40.4264 mg         1 CLA      0.895000
     66 HMD3       71.1091   56.1667   38.2018 dc         1 CLA      0.064300
     67 HMD2       70.7436   56.6411   39.8461 dc         1 CLA      0.064300
     68 HMD1       70.4434   57.8638   38.5941 dc         1 CLA      0.064300
     69 HMC3       74.8540   60.1484   46.0906 dc         1 CLA      0.052100
     70 HMC2       73.5890   61.3717   45.9574 dc         1 CLA      0.052100
     71 HMC1       73.1372   59.7057   46.2853 dc         1 CLA      0.052100
     72 HMB3       80.5989   62.6789   40.7176 dc         1 CLA      0.063600
     73 HMB2       80.3996   63.6876   42.2054 dc         1 CLA      0.063600
     74 HMB1       81.1569   62.0092   42.2115 dc         1 CLA      0.063600
     75 HMA3       80.9808   59.2563   38.7441 dc         1 CLA      0.058300
     76 HMA2       80.5352   57.6740   38.2831 dc         1 CLA      0.058300
     77 HMA1       81.3035   58.7049   37.1010 dc         1 CLA      0.058300
     78 HED3       78.2495   54.1722   36.0414 dc         1 CLA      0.079300
     79 HED2       77.3363   53.5504   37.3593 dc         1 CLA      0.079300
     80 HED1       76.5823   53.4878   35.6816 dc         1 CLA      0.079300
     81 HBC3       70.8109   57.1414   42.9108 dc         1 CLA      0.016300
     82 HBC2       72.0501   56.7342   44.0946 dc         1 CLA      0.016300
     83 HBC1       70.4271   56.9644   44.6519 dc         1 CLA      0.016300
     84 HBB2       79.8991   63.5314   45.8222 da         1 CLA      0.183000
     85 HBB1       80.6588   62.6894   44.3921 da         1 CLA      0.183000
     86 HBA2       78.8317   59.5346   33.3805 dc         1 CLA      0.029400
     87 HBA1       79.8993   59.5625   34.8149 dc         1 CLA      0.029400
     88 HAC2       71.4678   58.9691   45.1015 dc         1 CLA      0.029300
     89 HAC1       70.5605   59.3927   43.7312 dc         1 CLA      0.029300
     90 HAA2       77.1176   58.7411   34.8474 dc         1 CLA      0.028700
     91 HAA1       77.8487   60.2231   35.3125 dc         1 CLA      0.028700
     92 H203       84.5135   65.1178   47.7096 dc         1 CLA      0.065600
     93 H202       83.0797   65.1591   46.6508 dc         1 CLA      0.065600
     94 H201       82.8190   65.2660   48.2777 dc         1 CLA      0.065600
     95 H193       84.2809   63.0612   49.1756 dc         1 CLA      0.065600
     96 H192       82.4892   62.7624   49.2472 dc         1 CLA      0.065600
     97 H191       83.6411   61.5173   48.6380 dc         1 CLA      0.065600
     98 H172       85.1785   62.4967   46.8054 dc         1 CLA      0.027600
     99 H171       84.5943   63.5347   45.5875 dc         1 CLA      0.027600
    100 H162       82.8294   61.9090   44.7687 dc         1 CLA      0.002900
    101 H161       83.5354   60.6637   45.9842 dc         1 CLA      0.002900
    102 H152       85.8066   61.1317   45.0403 dc         1 CLA      0.029100
    103 H151       84.9925   62.1369   43.6847 dc         1 CLA      0.029100
    104 H143       85.9379   58.4234   44.3486 dc         1 CLA      0.063600
    105 H142       84.1374   58.7481   44.9906 dc         1 CLA      0.063600
    106 H141       84.4133   57.9173   43.5147 dc         1 CLA      0.063600
    107 H122       83.4984   61.3406   42.2226 dc         1 CLA      0.032500
    108 H121       82.6818   59.9336   43.2496 dc         1 CLA      0.032500
    109 H112       82.3376   59.7831   40.9076 dc         1 CLA      0.006600
    110 H111       83.1524   58.3106   41.6322 dc         1 CLA      0.006600
    111 H102       85.3770   59.1023   40.6823 dc         1 CLA      0.024100
    112 H101       84.5124   60.4641   40.0622 dc         1 CLA      0.024100
    113 HHD        71.5301   58.1689   41.3306 da         1 CLA      0.174300
    114 HHC        76.1538   61.3933   44.6835 da         1 CLA      0.136800
    115 HHB        79.9872   61.0458   39.4698 da         1 CLA      0.138300
    116 HBD        75.0803   57.9717   35.3401 dc         1 CLA      0.107700
    117 HAB        77.5913   62.8653   44.9582 da         1 CLA      0.155200
    118 H93        85.2559   58.8101   36.9736 dc         1 CLA      0.069500
    119 H92        85.6789   60.1794   38.1082 dc         1 CLA      0.069500
    120 H91        86.3270   58.4829   38.3054 dc         1 CLA      0.069500
    121 H8         83.4440   58.9706   38.4448 dc         1 CLA      0.029300
    122 H72        83.5039   56.8635   39.7698 dc         1 CLA      0.044400
    123 H71        85.1814   56.8229   39.8402 dc         1 CLA      0.044400
    124 H62        84.5767   55.2748   38.3204 dc         1 CLA      0.015600
    125 H61        85.2380   56.5513   37.2745 dc         1 CLA      0.015600
    126 H52        82.6657   57.0260   36.7545 dc         1 CLA      0.033200
    127 H51        82.2494   55.7675   37.8162 dc         1 CLA      0.033200
    128 H43        83.3641   53.1489   35.1265 dc         1 CLA      0.037000
    129 H42        84.5766   54.4358   35.4660 dc         1 CLA      0.037000
    130 H41        83.8953   53.6495   36.7802 dc         1 CLA      0.037000
    131 H3A        79.4504   60.3349   37.0619 dc         1 CLA      0.041100
    132 H2A        78.6582   57.4729   36.7065 dc         1 CLA      0.083100
    133 H2         80.8021   54.4847   36.0620 da         1 CLA      0.180900
    134 H18        82.3422   63.0279   47.0153 dc         1 CLA     -0.003900
    135 H13        85.5870   60.2212   42.6922 dc         1 CLA      0.019700
    136 H12        80.2579   55.2239   33.6791 dc         1 CLA      0.120400
    137 H11        81.7591   56.1229   33.4391 dc         1 CLA      0.120400
    138 C1         67.2646   62.2969   51.6572 Z1         2 LUT      0.509236
    139 C2         67.1510   63.7793   52.2916 Z2         2 LUT     -0.434695
    140 C3         65.6807   64.4120   52.1789 Z3         2 LUT      0.437453
    141 O3         65.7456   65.7630   52.6597 S1         2 LUT     -0.547129
    142 C4         65.2495   64.2655   50.7632 Z4         2 LUT     -0.468603
    143 C5         66.1361   63.5210   49.7566 Z5         2 LUT      0.279246
    144 C6         67.0760   62.6171   50.1433 Z6         2 LUT     -0.305473
    145 C7         68.0920   62.1149   49.1792 Z7         2 LUT      0.069402
    146 C8         68.7469   62.7899   48.2170 Z8         2 LUT     -0.191631
    147 C9         69.4149   62.2528   47.0546 Z9         2 LUT      0.196698
    148 C10        70.2160   63.0746   46.3588 Y1         2 LUT     -0.208611
    149 C11        70.8206   62.9297   45.0234 Y2         2 LUT      0.030784
    150 C12        71.9605   63.6922   44.7964 Y3         2 LUT     -0.220316
    151 C13        72.8739   63.6578   43.6433 Y4         2 LUT      0.215937
    152 C14        74.1265   64.1960   43.7200 Y5         2 LUT     -0.185793
    153 C15        75.1914   64.3930   42.7357 Y6         2 LUT     -0.057835
    154 C16        66.0073   61.4606   52.0755 Y7         2 LUT     -0.405615
    155 C17        68.5504   61.6481   52.2599 Y7         2 LUT     -0.405615
    156 C18        66.0767   64.1637   48.3688 Y9         2 LUT     -0.369639
    157 C19        69.0605   60.8582   46.6463 W1         2 LUT     -0.333362
    158 C20        72.3606   63.0558   42.3478 W2         2 LUT     -0.323439
    159 C21        86.5745   66.2729   36.3770 Z1         2 LUT      0.406104
    160 C22        87.3050   65.7691   35.1499 Z2         2 LUT     -0.404965
    161 C23        87.3887   66.8989   34.0285 Z3         2 LUT      0.391255
    162 O23        88.0189   66.2549   32.9022 S1         2 LUT     -0.528210
    163 C24        86.1230   67.7441   33.9595 W6         2 LUT     -0.258361
    164 C25        85.0548   67.6717   34.7524 Z5         2 LUT      0.133546
    165 C26        85.0407   66.7869   35.9743 W8         2 LUT     -0.147008
    166 C27        84.3376   67.3435   37.1755 Z7         2 LUT      0.023843
    167 C28        83.1183   66.9318   37.6387 Z8         2 LUT     -0.216987
    168 C29        82.3799   67.3892   38.8418 Z9         2 LUT      0.206524
    169 C30        81.2231   66.6277   39.1720 Y1         2 LUT     -0.215556
    170 C31        80.3251   66.7950   40.3076 Y2         2 LUT      0.025142
    171 C32        79.1987   66.0676   40.5601 Y3         2 LUT     -0.212209
    172 C33        78.3669   66.1478   41.7537 Y4         2 LUT      0.240937
    173 C34        77.3325   65.3026   41.8492 Y5         2 LUT     -0.218862
    174 C35        76.3351   65.2291   42.8402 Y6         2 LUT     -0.023547
    175 C36        87.5780   67.3462   37.0317 Y7         2 LUT     -0.393485
    176 C37        86.3909   65.0273   37.1943 Y7         2 LUT     -0.393485
    177 C38        83.7779   68.3949   34.3668 Y9         2 LUT     -0.387526
    178 C39        82.9268   68.5855   39.5734 W1         2 LUT     -0.322618
    179 C40        78.8970   67.0863   42.8705 W2         2 LUT     -0.358472
    180 H403       78.6223   68.0634   42.6426 R7         2 LUT      0.097720
    181 H402       78.4930   66.7182   43.8737 R7         2 LUT      0.097720
    182 H401       79.9042   67.1377   42.8520 R7         2 LUT      0.097720
    183 H393       83.9656   68.5658   39.9859 R4         2 LUT      0.082505
    184 H392       83.0239   69.3582   38.8709 R4         2 LUT      0.082505
    185 H391       82.3152   68.8873   40.4880 R4         2 LUT      0.082505
    186 H383       83.6103   69.2853   35.0251 R1         2 LUT      0.104030
    187 H382       83.7867   68.7485   33.3263 R1         2 LUT      0.104030
    188 H381       83.0819   67.5642   34.4186 R1         2 LUT      0.104030
    189 H373       87.4558   64.6875   37.3579 T4         2 LUT      0.089537
    190 H372       86.0624   65.3411   38.1939 T4         2 LUT      0.089537
    191 H371       85.9974   64.1318   36.5837 T4         2 LUT      0.089537
    192 H363       87.5860   68.2220   36.4198 T4         2 LUT      0.089537
    193 H362       87.2206   67.5336   38.0571 T4         2 LUT      0.089537
    194 H361       88.6503   66.9681   37.1035 T4         2 LUT      0.089537
    195 H222       88.3845   65.4248   35.3561 U2         2 LUT      0.127376
    196 H221       86.7373   64.8791   34.7736 U2         2 LUT      0.127376
    197 H203       71.4098   63.5522   42.0138 R7         2 LUT      0.087068
    198 H202       73.1521   63.1497   41.5277 R7         2 LUT      0.087068
    199 H201       72.1693   61.9657   42.4512 R7         2 LUT      0.087068
    200 H193       69.1887   60.6722   45.6191 R4         2 LUT      0.089716
    201 H192       69.6500   60.1711   47.1356 R4         2 LUT      0.089716
    202 H191       68.0494   60.6539   46.8699 R4         2 LUT      0.089716
    203 H183       66.2576   63.4890   47.6068 R1         2 LUT      0.094572
    204 H182       65.0518   64.5304   48.2211 R1         2 LUT      0.094572
    205 H181       66.8155   64.9596   48.2142 R1         2 LUT      0.094572
    206 H173       68.3202   61.2275   53.2429 T4         2 LUT      0.093752
    207 H172       68.8079   60.7954   51.6607 T4         2 LUT      0.093752
    208 H171       69.4115   62.3049   52.3681 T4         2 LUT      0.093752
    209 H163       66.2209   60.4809   51.7736 T4         2 LUT      0.093752
    210 H162       65.9784   61.4087   53.1175 T4         2 LUT      0.093752
    211 H161       64.9759   61.7669   51.8003 T4         2 LUT      0.093752
    212 HO3        64.7942   65.9052   52.8991 Q1         2 LUT      0.300121
    213 H8         68.7138   63.8832   48.2509 U7         2 LUT      0.080784
    214 H7         68.0819   61.0298   49.0374 U6         2 LUT      0.042190
    215 H42        64.1565   64.0262   50.6556 U5         2 LUT      0.145166
    216 H41        65.3820   65.3119   50.3679 U5         2 LUT      0.145166
    217 H35        76.4210   65.9558   43.6871 T3         2 LUT      0.077919
    218 H34        77.1528   64.6463   41.0149 T2         2 LUT      0.073626
    219 H32        78.9441   65.1882   39.8990 T1         2 LUT      0.092510
    220 H31        80.6605   67.6266   40.9075 U9         2 LUT      0.070048
    221 H30        81.0579   65.7699   38.6650 U8         2 LUT      0.085442
    222 H3         65.0184   63.6743   52.6937 U3         2 LUT     -0.031596
    223 H28        82.5605   66.1202   37.1557 U7         2 LUT      0.084728
    224 H27        84.7548   68.3107   37.5157 U6         2 LUT      0.087291
    225 H26        84.4548   65.8592   35.5938 Q6         2 LUT      0.075325
    226 H24        86.1438   68.3814   33.0977 Q5         2 LUT      0.094482
    227 H23        88.2996   67.4630   34.3211 U3         2 LUT     -0.024869
    228 H22        67.4320   63.7388   53.3292 U2         2 LUT      0.127376
    229 H21        67.8676   64.4240   51.8741 U2         2 LUT      0.127376
    230 H15        75.1592   63.6885   41.9207 T3         2 LUT      0.093200
    231 H14        74.5016   64.7329   44.6443 T2         2 LUT      0.068865
    232 H12        72.2917   64.3278   45.5952 T1         2 LUT      0.095507
    233 H11        70.5724   62.1977   44.2816 U9         2 LUT      0.068930
    234 H10        70.3476   64.0384   46.8432 U8         2 LUT      0.083911
    235 H1         87.3508   65.7332   32.3918 Q1         2 LUT      0.297311
@<TRIPOS>BOND
    1     6     1 1
    2     7     2 1
    3     8     3 1
    4     9     4 1
    5    11     4 1
    6    12     6 1
    7    13     9 1
    8    16     9 1
    9    25     5 1
   10    25    16 1
   11    26    10 1
   12    26    17 1
   13    27    18 1
   14    28    14 1
   15    28    19 1
   16    29    12 1
   17    30    13 1
   18    31    24 1
   19    32     1 1
   20    32    25 1
   21    33    21 1
   22    33    26 1
   23    34    22 1
   24    34    27 1
   25    35    23 1
   26    35    28 1
   27    36    12 1
   28    36    24 1
   29    37    13 1
   30    37    15 1
   31    38    31 1
   32    39    20 1
   33    39    32 1
   34    40     2 1
   35    40    33 1
   36    41     3 1
   37    41    34 1
   38    42     4 1
   39    42    35 1
   40    43    38 1
   41    44     5 1
   42    44    17 1
   43    44    39 1
   44    45    10 1
   45    45    18 1
   46    45    40 1
   47    46    19 1
   48    46    41 1
   49    47    14 1
   50    47    16 1
   51    47    42 1
   52    48    38 1
   53    49    48 1
   54    50    49 1
   55    51    50 1
   56    52    51 1
   57    53    51 1
   58    54    53 1
   59    55    54 1
   60    56    55 1
   61    57    56 1
   62    58    56 1
   63    59    58 1
   64    60    59 1
   65    61    60 1
   66    62    61 1
   67    63    61 1
   68    64    27 1
   69    64    46 1
   70    65     5 1
   71    65    10 1
   72    65    64 1
   73    65    14 1
   74    66    23 1
   75    67    23 1
   76    68    23 1
   77    69    22 1
   78    70    22 1
   79    71    22 1
   80    72    21 1
   81    73    21 1
   82    74    21 1
   83    75    20 1
   84    76    20 1
   85    77    20 1
   86    78    15 1
   87    79    15 1
   88    80    15 1
   89    81     8 1
   90    82     8 1
   91    83     8 1
   92    84     7 1
   93    85     7 1
   94    86     6 1
   95    87     6 1
   96    88     3 1
   97    89     3 1
   98    90     1 1
   99    91     1 1
  100    92    63 1
  101    93    63 1
  102    94    63 1
  103    95    62 1
  104    96    62 1
  105    97    62 1
  106    98    60 1
  107    99    60 1
  108   100    59 1
  109   101    59 1
  110   102    58 1
  111   103    58 1
  112   104    57 1
  113   105    57 1
  114   106    57 1
  115   107    55 1
  116   108    55 1
  117   109    54 1
  118   110    54 1
  119   111    53 1
  120   112    53 1
  121   113    19 1
  122   114    18 1
  123   115    17 1
  124   116     9 1
  125   117     2 1
  126   118    52 1
  127   119    52 1
  128   120    52 1
  129   121    51 1
  130   122    50 1
  131   123    50 1
  132   124    49 1
  133   125    49 1
  134   126    48 1
  135   127    48 1
  136   128    43 1
  137   129    43 1
  138   130    43 1
  139   131    39 1
  140   132    32 1
  141   133    31 1
  142   134    61 1
  143   135    56 1
  144   136    24 1
  145   137    24 1
  146   139   138 1
  147   140   139 1
  148   141   140 1
  149   142   140 1
  150   143   142 1
  151   144   138 1
  152   144   143 1
  153   145   144 1
  154   146   145 1
  155   147   146 1
  156   148   147 1
  157   149   148 1
  158   150   149 1
  159   151   150 1
  160   152   151 1
  161   153   152 1
  162   154   138 1
  163   155   138 1
  164   156   143 1
  165   157   147 1
  166   158   151 1
  167   160   159 1
  168   161   160 1
  169   162   161 1
  170   163   161 1
  171   164   163 1
  172   165   159 1
  173   165   164 1
  174   166   165 1
  175   167   166 1
  176   168   167 1
  177   169   168 1
  178   170   169 1
  179   171   170 1
  180   172   171 1
  181   173   172 1
  182   174   153 1
  183   174   173 1
  184   175   159 1
  185   176   159 1
  186   177   164 1
  187   178   168 1
  188   179   172 1
  189   180   179 1
  190   181   179 1
  191   182   179 1
  192   183   178 1
  193   184   178 1
  194   185   178 1
  195   186   177 1
  196   187   177 1
  197   188   177 1
  198   189   176 1
  199   190   176 1
  200   191   176 1
  201   192   175 1
  202   193   175 1
  203   194   175 1
  204   195   160 1
  205   196   160 1
  206   197   158 1
  207   198   158 1
  208   199   158 1
  209   200   157 1
  210   201   157 1
  211   202   157 1
  212   203   156 1
  213   204   156 1
  214   205   156 1
  215   206   155 1
  216   207   155 1
  217   208   155 1
  218   209   154 1
  219   210   154 1
  220   211   154 1
  221   212   141 1
  222   213   146 1
  223   214   145 1
  224   215   142 1
  225   216   142 1
  226   217   174 1
  227   218   173 1
  228   219   171 1
  229   220   170 1
  230   221   169 1
  231   222   140 1
  232   223   167 1
  233   224   166 1
  234   225   165 1
  235   226   163 1
  236   227   161 1
  237   228   139 1
  238   229   139 1
  239   230   153 1
  240   231   152 1
  241   232   150 1
  242   233   149 1
  243   234   148 1
  244   235   162 1
  245   65    153 1
  246   65    174 1
@<TRIPOS>SUBSTRUCTURE
      1 CLA               1 ****               0 ****  **** 
      2 LUT             138 ****               0 ****  **** 
