@<TRIPOS>MOLECULE
Cpptraj generated mol2 file.
  235   246     2     0     0
SMALL
USER_CHARGES


@<TRIPOS>ATOM
      1 CAA        79.5598   58.0211   34.2414 a2         1 CLA     -0.055900
      2 CAB        80.0703   62.4402   42.9431 c8         1 CLA     -0.148500
      3 CAC        73.1205   58.2785   43.0157 a2         1 CLA     -0.012600
      4 CAD        75.6879   55.3272   35.8422 ck         1 CLA      0.398800
      5 NA         78.8169   58.6892   37.6086 ns         1 CLA     -0.225500
      6 CBA        80.6078   57.8546   33.2263 a2         1 CLA     -0.135000
      7 CBB        80.3322   61.8069   44.1179 c0         1 CLA     -0.395200
      8 CBC        73.1815   56.7105   43.1554 a3         1 CLA     -0.037700
      9 CBD        77.1697   55.8459   35.4947 a1         1 CLA     -0.053900
     10 NB         78.6967   60.3556   40.1627 nm         1 CLA     -0.295700
     11 OBD        75.0886   54.5069   35.1839 o2         1 CLA     -0.494600
     12 CGA        81.0229   56.3504   32.9196 c4         1 CLA      0.827000
     13 CGD        78.1183   54.7509   35.4960 c4         1 CLA      0.655300
     14 ND         76.1412   57.7402   38.4018 nm         1 CLA     -0.291600
     15 CED        79.4167   53.4085   37.0164 a3         1 CLA      0.005400
     16 CHA        77.5319   56.9776   36.4731 cs         1 CLA     -0.123800
     17 CHB        80.5333   60.1099   38.5896 aa         1 CLA     -0.291900
     18 CHC        77.4945   60.6938   42.2957 aa         1 CLA     -0.090400
     19 CHD        74.2366   57.8021   40.0337 aa         1 CLA     -0.052000
     20 CMA        82.3571   58.0494   36.8261 a3         1 CLA     -0.230700
     21 CMB        82.0084   62.2053   40.4352 a3         1 CLA     -0.180800
     22 CMC        75.2634   60.3853   44.4059 a3         1 CLA     -0.134000
     23 CMD        73.0207   55.6993   38.0996 a3         1 CLA     -0.141100
     24 C1         82.0121   54.4120   33.8764 a2         1 CLA      0.023000
     25 C1A        78.7010   57.7634   36.6064 ac         1 CLA     -0.015100
     26 C1B        80.0030   60.6719   39.7308 cr         1 CLA      0.054700
     27 C1C        76.3716   59.8299   42.1158 cn         1 CLA     -0.005600
     28 C1D        74.8672   57.2909   38.8798 ap         1 CLA     -0.047300
     29 O1A        80.6143   55.6413   32.0037 o2         1 CLA     -0.610800
     30 O1D        78.9611   54.4817   34.6255 o2         1 CLA     -0.558200
     31 C2         82.7027   53.8982   35.2384 c8         1 CLA     -0.325100
     32 C2A        79.9586   57.6920   35.7659 a1         1 CLA      0.098600
     33 C2B        80.6717   61.5092   40.6583 cb         1 CLA      0.088500
     34 C2C        75.3113   59.6775   43.0375 cb         1 CLA      0.053700
     35 C2D        74.3323   56.3177   37.9367 cb         1 CLA      0.058900
     36 O2A        81.7737   55.8357   33.9716 o1         1 CLA     -0.437200
     37 O2D        78.1589   54.0758   36.7172 o1         1 CLA     -0.357600
     38 C3         83.5704   52.9263   35.4917 c5         1 CLA      0.031200
     39 C3A        80.9136   58.6785   36.4784 a1         1 CLA      0.166800
     40 C3B        79.8100   61.6491   41.7651 cb         1 CLA      0.035000
     41 C3C        74.3675   58.8367   42.3683 cb         1 CLA     -0.089900
     42 C3D        75.3813   56.1025   37.0006 cb         1 CLA     -0.035900
     43 C4         83.2135   51.3907   35.7240 a3         1 CLA     -0.053300
     44 C4A        80.0993   59.1773   37.6641 ac         1 CLA      0.001800
     45 C4B        78.5918   60.8951   41.4070 cn         1 CLA     -0.020900
     46 C4C        74.9091   58.4924   41.0760 cr         1 CLA     -0.044400
     47 C4D        76.4034   57.0512   37.3157 c6         1 CLA     -0.046000
     48 C5         85.0964   53.1742   35.4864 a2         1 CLA     -0.070400
     49 C6         85.5912   54.5440   35.9722 a2         1 CLA      0.043900
     50 C7         87.1074   54.3804   36.1397 a2         1 CLA     -0.150000
     51 C8         87.9545   55.2940   37.1031 a1         1 CLA      0.064200
     52 C9         89.4460   54.9406   36.9416 a3         1 CLA     -0.259300
     53 C10        87.5180   55.2217   38.6301 a2         1 CLA     -0.071900
     54 C11        88.3152   56.1583   39.5683 a2         1 CLA      0.014500
     55 C12        87.4999   56.3834   40.8291 a2         1 CLA     -0.112100
     56 C13        88.0800   57.5164   41.7492 a1         1 CLA      0.089200
     57 C14        89.3776   57.2040   42.6178 a3         1 CLA     -0.239100
     58 C15        86.8737   58.0675   42.5467 a2         1 CLA     -0.102200
     59 C16        87.1046   59.3628   43.3705 a2         1 CLA      0.023900
     60 C17        85.8264   59.9282   43.9855 a2         1 CLA     -0.105700
     61 C18        84.9591   58.9611   44.8581 a1         1 CLA      0.206800
     62 C19        85.8130   58.3050   45.9263 a3         1 CLA     -0.280100
     63 C20        83.7707   59.6579   45.4761 a3         1 CLA     -0.280100
     64 NC         76.1122   59.1506   40.9081 nx         1 CLA     -0.309200
     65 MG         77.3668   59.0831   39.1704 mg         1 CLA      0.895000
     66 HMD3       72.1723   56.3994   37.9333 dc         1 CLA      0.064300
     67 HMD2       72.8283   55.0516   37.2487 dc         1 CLA      0.064300
     68 HMD1       72.9927   55.1912   38.9510 dc         1 CLA      0.064300
     69 HMC3       74.4009   60.1607   45.0031 dc         1 CLA      0.052100
     70 HMC2       76.1481   60.1517   44.9360 dc         1 CLA      0.052100
     71 HMC1       75.1570   61.5059   44.1799 dc         1 CLA      0.052100
     72 HMB3       82.7125   61.3582   40.2797 dc         1 CLA      0.063600
     73 HMB2       82.0263   62.7742   39.4787 dc         1 CLA      0.063600
     74 HMB1       82.3780   62.7892   41.2726 dc         1 CLA      0.063600
     75 HMA3       82.7665   57.4815   35.9935 dc         1 CLA      0.058300
     76 HMA2       83.0590   58.8394   37.1144 dc         1 CLA      0.058300
     77 HMA1       82.3124   57.2854   37.6436 dc         1 CLA      0.058300
     78 HED3       80.2815   54.0954   36.8889 dc         1 CLA      0.079300
     79 HED2       79.4220   53.0920   38.0577 dc         1 CLA      0.079300
     80 HED1       79.5511   52.5375   36.4866 dc         1 CLA      0.079300
     81 HBC3       72.4317   56.4827   43.9013 dc         1 CLA      0.016300
     82 HBC2       73.1771   56.2501   42.2071 dc         1 CLA      0.016300
     83 HBC1       74.0959   56.5868   43.7261 dc         1 CLA      0.016300
     84 HBB2       80.4783   62.2329   45.0832 da         1 CLA      0.183000
     85 HBB1       80.3050   60.6727   44.2436 da         1 CLA      0.183000
     86 HBA2       80.1536   58.1173   32.2693 dc         1 CLA      0.029400
     87 HBA1       81.5191   58.3704   33.4080 dc         1 CLA      0.029400
     88 HAC2       73.0632   58.7227   44.0487 dc         1 CLA      0.029300
     89 HAC1       72.3366   58.5820   42.4101 dc         1 CLA      0.029300
     90 HAA2       78.7813   57.3374   33.9726 dc         1 CLA      0.028700
     91 HAA1       79.2627   59.1131   34.2834 dc         1 CLA      0.028700
     92 H203       83.1023   60.0732   44.6970 dc         1 CLA      0.065600
     93 H202       83.3251   58.9343   46.1479 dc         1 CLA      0.065600
     94 H201       84.1383   60.5470   46.0570 dc         1 CLA      0.065600
     95 H193       86.8008   57.9706   45.6127 dc         1 CLA      0.065600
     96 H192       85.9878   58.9056   46.8111 dc         1 CLA      0.065600
     97 H191       85.2683   57.4475   46.3093 dc         1 CLA      0.065600
     98 H172       86.1496   60.6263   44.7362 dc         1 CLA      0.027600
     99 H171       85.1534   60.3229   43.2048 dc         1 CLA      0.027600
    100 H162       87.8863   59.1477   44.1085 dc         1 CLA      0.002900
    101 H161       87.3990   60.0821   42.6411 dc         1 CLA      0.002900
    102 H152       86.0444   58.3411   41.8185 dc         1 CLA      0.029100
    103 H151       86.4690   57.3050   43.2042 dc         1 CLA      0.029100
    104 H143       89.1547   56.7210   43.5146 dc         1 CLA      0.063600
    105 H142       90.0636   56.5633   42.1433 dc         1 CLA      0.063600
    106 H141       89.8299   58.1474   42.8328 dc         1 CLA      0.063600
    107 H122       86.4937   56.6849   40.4964 dc         1 CLA      0.032500
    108 H121       87.5751   55.4681   41.3741 dc         1 CLA      0.032500
    109 H112       89.2093   55.6081   39.6269 dc         1 CLA      0.006600
    110 H111       88.6905   57.1732   39.1612 dc         1 CLA      0.006600
    111 H102       86.4505   55.4529   38.5836 dc         1 CLA      0.024100
    112 H101       87.6541   54.1702   38.8962 dc         1 CLA      0.024100
    113 HHD        73.1955   57.4329   40.1507 da         1 CLA      0.174300
    114 HHC        77.5701   61.2312   43.2607 da         1 CLA      0.136800
    115 HHB        81.5616   60.3759   38.6513 da         1 CLA      0.138300
    116 HBD        77.2452   56.0484   34.4343 dc         1 CLA      0.107700
    117 HAB        80.1698   63.4505   42.8781 da         1 CLA      0.155200
    118 H93        89.7782   54.9855   35.8910 dc         1 CLA      0.069500
    119 H92        90.0544   55.6837   37.4571 dc         1 CLA      0.069500
    120 H91        89.7200   53.9603   37.2891 dc         1 CLA      0.069500
    121 H8         87.7734   56.3469   36.8919 dc         1 CLA      0.029300
    122 H72        87.2220   53.3977   36.5122 dc         1 CLA      0.044400
    123 H71        87.5200   54.4837   35.0916 dc         1 CLA      0.044400
    124 H62        85.2870   55.3021   35.2851 dc         1 CLA      0.015600
    125 H61        85.1646   54.8063   36.9697 dc         1 CLA      0.015600
    126 H52        85.5132   52.4151   36.0878 dc         1 CLA      0.033200
    127 H51        85.3227   53.0043   34.4759 dc         1 CLA      0.033200
    128 H43        83.5079   51.1534   36.7558 dc         1 CLA      0.037000
    129 H42        82.1926   51.1936   35.5065 dc         1 CLA      0.037000
    130 H41        83.6788   50.6599   35.0788 dc         1 CLA      0.037000
    131 H3A        81.0373   59.4219   35.7057 dc         1 CLA      0.041100
    132 H2A        80.3941   56.6881   35.7066 dc         1 CLA      0.083100
    133 H2         82.6172   54.6426   36.1303 da         1 CLA      0.180900
    134 H18        84.5731   58.0853   44.1928 dc         1 CLA     -0.003900
    135 H13        88.3420   58.2437   40.9633 dc         1 CLA      0.019700
    136 H12        81.1274   53.8857   33.6710 dc         1 CLA      0.120400
    137 H11        82.6631   54.1624   33.0283 dc         1 CLA      0.120400
    138 C1         70.2815   61.6845   50.2977 Z1         2 LUT      0.509236
    139 C2         69.8153   62.3018   51.5480 Z2         2 LUT     -0.434695
    140 C3         68.3201   62.6254   51.5520 Z3         2 LUT      0.437453
    141 O3         68.0623   63.1775   52.8398 S1         2 LUT     -0.547129
    142 C4         68.1234   63.7216   50.5174 Z4         2 LUT     -0.468603
    143 C5         68.7457   63.3457   49.1727 Z5         2 LUT      0.279246
    144 C6         69.7599   62.3632   49.0553 Z6         2 LUT     -0.305473
    145 C7         70.3948   61.9085   47.7663 Z7         2 LUT      0.069402
    146 C8         71.1031   62.7037   46.8822 Z8         2 LUT     -0.191631
    147 C9         71.7139   62.3719   45.5664 Z9         2 LUT      0.196698
    148 C10        72.6692   63.2299   45.0554 Y1         2 LUT     -0.208611
    149 C11        73.2699   63.2735   43.7325 Y2         2 LUT      0.030784
    150 C12        74.4598   63.8539   43.4543 Y3         2 LUT     -0.220316
    151 C13        75.2091   63.8230   42.1220 Y4         2 LUT      0.215937
    152 C14        76.4448   64.4801   42.0838 Y5         2 LUT     -0.185793
    153 C15        77.5097   64.4705   41.1955 Y6         2 LUT     -0.057835
    154 C16        69.6149   60.2128   50.3846 Y7         2 LUT     -0.405615
    155 C17        71.8404   61.4977   50.4182 Y7         2 LUT     -0.405615
    156 C18        68.1876   64.2452   48.0229 Y9         2 LUT     -0.369639
    157 C19        71.1693   61.2449   44.8422 W1         2 LUT     -0.333362
    158 C20        74.5601   63.2801   40.8817 W2         2 LUT     -0.323439
    159 C21        88.7954   65.5354   34.9991 Z1         2 LUT      0.406104
    160 C22        89.4187   65.0778   33.7772 Z2         2 LUT     -0.404965
    161 C23        89.4061   66.0097   32.5619 Z3         2 LUT      0.391255
    162 O23        90.0897   65.4338   31.4385 S1         2 LUT     -0.528210
    163 C24        87.9642   66.4931   32.3408 W6         2 LUT     -0.258361
    164 C25        87.0302   66.5667   33.2416 Z5         2 LUT      0.133546
    165 C26        87.3296   66.0854   34.6778 W8         2 LUT     -0.147008
    166 C27        86.6638   66.7499   35.8900 Z7         2 LUT      0.023843
    167 C28        85.5184   66.2992   36.5671 Z8         2 LUT     -0.216987
    168 C29        84.9981   66.7908   37.8101 Z9         2 LUT      0.206524
    169 C30        83.8106   66.2735   38.2287 Y1         2 LUT     -0.215556
    170 C31        83.0772   66.4993   39.3643 Y2         2 LUT      0.025142
    171 C32        81.8896   65.8089   39.5283 Y3         2 LUT     -0.212209
    172 C33        80.9435   65.8623   40.5892 Y4         2 LUT      0.240937
    173 C34        79.8167   65.0474   40.5287 Y5         2 LUT     -0.218862
    174 C35        78.7185   65.0508   41.3934 Y6         2 LUT     -0.023547
    175 C36        89.4875   66.8303   35.5159 Y7         2 LUT     -0.393485
    176 C37        88.9671   64.4530   36.0622 Y7         2 LUT     -0.393485
    177 C38        85.6459   67.0190   32.8389 Y9         2 LUT     -0.387526
    178 C39        85.6841   67.8400   38.5725 W1         2 LUT     -0.322618
    179 C40        81.2382   66.8599   41.6931 W2         2 LUT     -0.358472
    180 H403       81.1288   67.8621   41.3762 R7         2 LUT      0.097720
    181 H402       80.5140   66.8004   42.5078 R7         2 LUT      0.097720
    182 H401       82.2766   66.7310   42.0382 R7         2 LUT      0.097720
    183 H393       86.2951   67.5526   39.4712 R4         2 LUT      0.082505
    184 H392       86.2777   68.3717   37.9197 R4         2 LUT      0.082505
    185 H391       85.0661   68.5046   39.1124 R4         2 LUT      0.082505
    186 H383       85.6813   68.0682   32.4711 R1         2 LUT      0.104030
    187 H382       85.3700   66.4158   31.9817 R1         2 LUT      0.104030
    188 H381       84.7949   66.8533   33.5704 R1         2 LUT      0.104030
    189 H373       89.9874   64.1039   36.3893 T4         2 LUT      0.089537
    190 H372       88.5853   64.7892   36.9249 T4         2 LUT      0.089537
    191 H371       88.3623   63.5683   35.8007 T4         2 LUT      0.089537
    192 H363       89.1416   67.2197   36.5009 T4         2 LUT      0.089537
    193 H362       90.5494   66.7160   35.6995 T4         2 LUT      0.089537
    194 H361       89.3230   67.6906   34.9050 T4         2 LUT      0.089537
    195 H222       90.4425   64.7544   33.9044 U2         2 LUT      0.127376
    196 H221       88.9969   64.1396   33.4301 U2         2 LUT      0.127376
    197 H203       73.5074   63.4831   40.8119 R7         2 LUT      0.087068
    198 H202       75.0418   63.6498   39.9324 R7         2 LUT      0.087068
    199 H201       74.7728   62.2098   40.8553 R7         2 LUT      0.087068
    200 H193       71.5750   60.3215   45.2600 R4         2 LUT      0.089716
    201 H192       70.0591   61.1768   44.8967 R4         2 LUT      0.089716
    202 H191       71.2902   61.2836   43.7519 R4         2 LUT      0.089716
    203 H183       68.0084   63.8290   47.0296 R1         2 LUT      0.094572
    204 H182       67.2324   64.6280   48.3296 R1         2 LUT      0.094572
    205 H181       68.8125   65.2173   47.9076 R1         2 LUT      0.094572
    206 H173       72.2742   61.0255   49.5570 T4         2 LUT      0.093752
    207 H172       72.2868   62.5359   50.5341 T4         2 LUT      0.093752
    208 H171       72.1005   60.9475   51.3132 T4         2 LUT      0.093752
    209 H163       70.0405   59.5100   49.7322 T4         2 LUT      0.093752
    210 H162       69.6968   59.7631   51.3854 T4         2 LUT      0.093752
    211 H161       68.6075   60.2297   50.1512 T4         2 LUT      0.093752
    212 HO3        67.9174   62.4993   53.5249 Q1         2 LUT      0.300121
    213 H8         71.1351   63.7207   47.1675 U7         2 LUT      0.080784
    214 H7         70.2636   60.8963   47.6425 U6         2 LUT      0.042190
    215 H42        67.0433   64.0208   50.4761 U5         2 LUT      0.145166
    216 H41        68.5972   64.6052   50.9321 U5         2 LUT      0.145166
    217 H35        78.7637   65.4353   42.3718 T3         2 LUT      0.077919
    218 H34        79.7711   64.4034   39.7220 T2         2 LUT      0.073626
    219 H32        81.6149   65.1471   38.7551 T1         2 LUT      0.092510
    220 H31        83.3984   67.2109   40.0930 U9         2 LUT      0.070048
    221 H30        83.3808   65.5344   37.5739 U8         2 LUT      0.085442
    222 H3         67.5134   61.9096   51.2209 U3         2 LUT     -0.031596
    223 H28        84.9489   65.6069   35.9900 U7         2 LUT      0.084728
    224 H27        87.1540   67.5360   36.3948 U6         2 LUT      0.087291
    225 H26        86.7925   65.1454   34.5983 Q6         2 LUT      0.075325
    226 H24        87.7477   66.7437   31.2718 Q5         2 LUT      0.094482
    227 H23        90.0693   66.8501   32.7920 U3         2 LUT     -0.024869
    228 H22        70.1517   61.6684   52.3955 U2         2 LUT      0.127376
    229 H21        70.2663   63.3050   51.6814 U2         2 LUT      0.127376
    230 H15        77.2665   64.0356   40.2300 T3         2 LUT      0.093200
    231 H14        76.7140   64.9077   43.0926 T2         2 LUT      0.068865
    232 H12        74.9282   64.3422   44.3045 T1         2 LUT      0.095507
    233 H11        72.8475   62.7644   42.9459 U9         2 LUT      0.068930
    234 H10        72.9920   64.0770   45.6379 U8         2 LUT      0.083911
    235 H1         89.5556   64.8796   30.8930 Q1         2 LUT      0.297311
@<TRIPOS>BOND
    1     6     1 1
    2     7     2 1
    3     8     3 1
    4     9     4 1
    5    11     4 1
    6    12     6 1
    7    13     9 1
    8    16     9 1
    9    25     5 1
   10    25    16 1
   11    26    10 1
   12    26    17 1
   13    27    18 1
   14    28    14 1
   15    28    19 1
   16    29    12 1
   17    30    13 1
   18    31    24 1
   19    32     1 1
   20    32    25 1
   21    33    21 1
   22    33    26 1
   23    34    22 1
   24    34    27 1
   25    35    23 1
   26    35    28 1
   27    36    12 1
   28    36    24 1
   29    37    13 1
   30    37    15 1
   31    38    31 1
   32    39    20 1
   33    39    32 1
   34    40     2 1
   35    40    33 1
   36    41     3 1
   37    41    34 1
   38    42     4 1
   39    42    35 1
   40    43    38 1
   41    44     5 1
   42    44    17 1
   43    44    39 1
   44    45    10 1
   45    45    18 1
   46    45    40 1
   47    46    19 1
   48    46    41 1
   49    47    14 1
   50    47    16 1
   51    47    42 1
   52    48    38 1
   53    49    48 1
   54    50    49 1
   55    51    50 1
   56    52    51 1
   57    53    51 1
   58    54    53 1
   59    55    54 1
   60    56    55 1
   61    57    56 1
   62    58    56 1
   63    59    58 1
   64    60    59 1
   65    61    60 1
   66    62    61 1
   67    63    61 1
   68    64    27 1
   69    64    46 1
   70    65     5 1
   71    65    10 1
   72    65    64 1
   73    65    14 1
   74    66    23 1
   75    67    23 1
   76    68    23 1
   77    69    22 1
   78    70    22 1
   79    71    22 1
   80    72    21 1
   81    73    21 1
   82    74    21 1
   83    75    20 1
   84    76    20 1
   85    77    20 1
   86    78    15 1
   87    79    15 1
   88    80    15 1
   89    81     8 1
   90    82     8 1
   91    83     8 1
   92    84     7 1
   93    85     7 1
   94    86     6 1
   95    87     6 1
   96    88     3 1
   97    89     3 1
   98    90     1 1
   99    91     1 1
  100    92    63 1
  101    93    63 1
  102    94    63 1
  103    95    62 1
  104    96    62 1
  105    97    62 1
  106    98    60 1
  107    99    60 1
  108   100    59 1
  109   101    59 1
  110   102    58 1
  111   103    58 1
  112   104    57 1
  113   105    57 1
  114   106    57 1
  115   107    55 1
  116   108    55 1
  117   109    54 1
  118   110    54 1
  119   111    53 1
  120   112    53 1
  121   113    19 1
  122   114    18 1
  123   115    17 1
  124   116     9 1
  125   117     2 1
  126   118    52 1
  127   119    52 1
  128   120    52 1
  129   121    51 1
  130   122    50 1
  131   123    50 1
  132   124    49 1
  133   125    49 1
  134   126    48 1
  135   127    48 1
  136   128    43 1
  137   129    43 1
  138   130    43 1
  139   131    39 1
  140   132    32 1
  141   133    31 1
  142   134    61 1
  143   135    56 1
  144   136    24 1
  145   137    24 1
  146   139   138 1
  147   140   139 1
  148   141   140 1
  149   142   140 1
  150   143   142 1
  151   144   138 1
  152   144   143 1
  153   145   144 1
  154   146   145 1
  155   147   146 1
  156   148   147 1
  157   149   148 1
  158   150   149 1
  159   151   150 1
  160   152   151 1
  161   153   152 1
  162   154   138 1
  163   155   138 1
  164   156   143 1
  165   157   147 1
  166   158   151 1
  167   160   159 1
  168   161   160 1
  169   162   161 1
  170   163   161 1
  171   164   163 1
  172   165   159 1
  173   165   164 1
  174   166   165 1
  175   167   166 1
  176   168   167 1
  177   169   168 1
  178   170   169 1
  179   171   170 1
  180   172   171 1
  181   173   172 1
  182   174   153 1
  183   174   173 1
  184   175   159 1
  185   176   159 1
  186   177   164 1
  187   178   168 1
  188   179   172 1
  189   180   179 1
  190   181   179 1
  191   182   179 1
  192   183   178 1
  193   184   178 1
  194   185   178 1
  195   186   177 1
  196   187   177 1
  197   188   177 1
  198   189   176 1
  199   190   176 1
  200   191   176 1
  201   192   175 1
  202   193   175 1
  203   194   175 1
  204   195   160 1
  205   196   160 1
  206   197   158 1
  207   198   158 1
  208   199   158 1
  209   200   157 1
  210   201   157 1
  211   202   157 1
  212   203   156 1
  213   204   156 1
  214   205   156 1
  215   206   155 1
  216   207   155 1
  217   208   155 1
  218   209   154 1
  219   210   154 1
  220   211   154 1
  221   212   141 1
  222   213   146 1
  223   214   145 1
  224   215   142 1
  225   216   142 1
  226   217   174 1
  227   218   173 1
  228   219   171 1
  229   220   170 1
  230   221   169 1
  231   222   140 1
  232   223   167 1
  233   224   166 1
  234   225   165 1
  235   226   163 1
  236   227   161 1
  237   228   139 1
  238   229   139 1
  239   230   153 1
  240   231   152 1
  241   232   150 1
  242   233   149 1
  243   234   148 1
  244   235   162 1
  245   65    153 1
  246   65    174 1
@<TRIPOS>SUBSTRUCTURE
      1 CLA               1 ****               0 ****  **** 
      2 LUT             138 ****               0 ****  **** 
