@<TRIPOS>MOLECULE
Cpptraj generated mol2 file.
  235   246     2     0     0
SMALL
USER_CHARGES


@<TRIPOS>ATOM
      1 CAA        79.7179   57.9298   34.9779 a2         1 CLA     -0.055900
      2 CAB        79.9793   62.0019   43.8255 c8         1 CLA     -0.148500
      3 CAC        73.1576   57.5342   43.9013 a2         1 CLA     -0.012600
      4 CAD        75.4708   55.3134   36.3332 ck         1 CLA      0.398800
      5 NA         78.7050   58.3207   38.4353 ns         1 CLA     -0.225500
      6 CBA        81.0527   57.6450   34.2480 a2         1 CLA     -0.135000
      7 CBB        81.1557   62.3587   44.4230 c0         1 CLA     -0.395200
      8 CBC        73.2908   56.0251   43.9867 a3         1 CLA     -0.037700
      9 CBD        76.9625   55.8362   35.9462 a1         1 CLA     -0.053900
     10 NB         78.7700   59.9966   40.9619 nm         1 CLA     -0.295700
     11 OBD        74.7547   54.5983   35.6317 o2         1 CLA     -0.494600
     12 CGA        81.3515   56.2031   33.8542 c4         1 CLA      0.827000
     13 CGD        77.8334   54.6069   35.7860 c4         1 CLA      0.655300
     14 ND         75.9813   57.5247   39.0840 nm         1 CLA     -0.291600
     15 CED        78.5638   52.5884   36.7202 a3         1 CLA      0.005400
     16 CHA        77.3663   56.7517   37.1242 cs         1 CLA     -0.123800
     17 CHB        80.6296   59.4376   39.5258 aa         1 CLA     -0.291900
     18 CHC        77.4984   60.1247   43.0491 aa         1 CLA     -0.090400
     19 CHD        74.2079   57.4159   40.8685 aa         1 CLA     -0.052000
     20 CMA        81.8836   57.1131   37.9509 a3         1 CLA     -0.230700
     21 CMB        82.1815   61.5224   41.2020 a3         1 CLA     -0.180800
     22 CMC        75.3789   59.5614   45.3380 a3         1 CLA     -0.134000
     23 CMD        73.0471   55.1407   38.8387 a3         1 CLA     -0.141100
     24 C1         82.2477   54.1063   34.6927 a2         1 CLA      0.023000
     25 C1A        78.4904   57.5333   37.3116 ac         1 CLA     -0.015100
     26 C1B        80.0933   60.0886   40.6722 cr         1 CLA      0.054700
     27 C1C        76.3331   59.3889   42.8405 cn         1 CLA     -0.005600
     28 C1D        74.7829   56.9911   39.5891 ap         1 CLA     -0.047300
     29 O1A        81.0447   55.6479   32.8198 o2         1 CLA     -0.610800
     30 O1D        78.5025   54.4447   34.7987 o2         1 CLA     -0.558200
     31 C2         83.0400   53.7239   35.8691 c8         1 CLA     -0.325100
     32 C2A        79.7711   57.4123   36.4613 a1         1 CLA      0.098600
     33 C2B        80.7581   61.0272   41.5238 cb         1 CLA      0.088500
     34 C2C        75.3687   59.0673   43.8690 cb         1 CLA      0.053700
     35 C2D        74.2745   56.0063   38.6450 cb         1 CLA      0.058900
     36 O2A        82.0870   55.5458   34.8498 o1         1 CLA     -0.437200
     37 O2D        77.9464   53.8917   36.9709 o1         1 CLA     -0.357600
     38 C3         84.3296   53.3255   35.7738 c5         1 CLA      0.031200
     39 C3A        80.8852   58.0765   37.3809 a1         1 CLA      0.166800
     40 C3B        79.8263   61.2872   42.5550 cb         1 CLA      0.035000
     41 C3C        74.4706   58.1890   43.2976 cb         1 CLA     -0.089900
     42 C3D        75.1441   55.9271   37.6368 cb         1 CLA     -0.035900
     43 C4         84.7028   51.8792   35.5172 a3         1 CLA     -0.053300
     44 C4A        80.0179   58.6186   38.5223 ac         1 CLA      0.001800
     45 C4B        78.5735   60.5115   42.2321 cn         1 CLA     -0.020900
     46 C4C        74.8791   58.1091   41.8815 cr         1 CLA     -0.044400
     47 C4D        76.2613   56.7685   37.9873 c6         1 CLA     -0.046000
     48 C5         85.4363   54.3032   36.0703 a2         1 CLA     -0.070400
     49 C6         85.3236   54.8252   37.4545 a2         1 CLA      0.043900
     50 C7         86.4965   55.7387   37.6883 a2         1 CLA     -0.150000
     51 C8         86.5966   56.2454   39.2448 a1         1 CLA      0.064200
     52 C9         85.3512   57.0441   39.5896 a3         1 CLA     -0.259300
     53 C10        87.9292   57.0743   39.5033 a2         1 CLA     -0.071900
     54 C11        88.1514   57.5579   40.9823 a2         1 CLA      0.014500
     55 C12        88.4752   56.4773   42.0513 a2         1 CLA     -0.112100
     56 C13        88.7363   57.1390   43.4483 a1         1 CLA      0.089200
     57 C14        89.8298   56.3009   44.1731 a3         1 CLA     -0.239100
     58 C15        87.4843   57.5131   44.2792 a2         1 CLA     -0.102200
     59 C16        87.6403   58.2973   45.5695 a2         1 CLA      0.023900
     60 C17        86.4019   58.8512   46.2671 a2         1 CLA     -0.105700
     61 C18        85.4797   57.8424   46.8613 a1         1 CLA      0.206800
     62 C19        86.0375   56.8393   47.9694 a3         1 CLA     -0.280100
     63 C20        84.2703   58.5244   47.4379 a3         1 CLA     -0.280100
     64 NC         75.9896   58.9026   41.5849 nx         1 CLA     -0.309200
     65 MG         77.3075   58.8201   39.9423 mg         1 CLA      0.895000
     66 HMD3       73.2074   54.2337   38.2374 dc         1 CLA      0.064300
     67 HMD2       72.9247   54.8300   39.9257 dc         1 CLA      0.064300
     68 HMD1       72.1928   55.6768   38.5094 dc         1 CLA      0.064300
     69 HMC3       76.1446   60.3646   45.5878 dc         1 CLA      0.052100
     70 HMC2       74.3752   59.9507   45.5302 dc         1 CLA      0.052100
     71 HMC1       75.5911   58.7091   45.9314 dc         1 CLA      0.052100
     72 HMB3       82.3549   62.3836   41.7352 dc         1 CLA      0.063600
     73 HMB2       82.8717   60.7243   41.5538 dc         1 CLA      0.063600
     74 HMB1       82.3652   61.6859   40.1555 dc         1 CLA      0.063600
     75 HMA3       82.5386   57.4984   38.7383 dc         1 CLA      0.058300
     76 HMA2       81.4171   56.3414   38.5654 dc         1 CLA      0.058300
     77 HMA1       82.5887   56.6737   37.2128 dc         1 CLA      0.058300
     78 HED3       77.8285   52.0499   36.1427 dc         1 CLA      0.079300
     79 HED2       79.5739   52.6452   36.2263 dc         1 CLA      0.079300
     80 HED1       78.7598   52.0171   37.5999 dc         1 CLA      0.079300
     81 HBC3       73.6776   55.6254   42.9811 dc         1 CLA      0.016300
     82 HBC2       74.0366   55.7566   44.7064 dc         1 CLA      0.016300
     83 HBC1       72.3705   55.5428   44.3014 dc         1 CLA      0.016300
     84 HBB2       81.0990   62.9106   45.3426 da         1 CLA      0.183000
     85 HBB1       82.1325   62.2278   43.9700 da         1 CLA      0.183000
     86 HBA2       80.9994   58.2052   33.3680 dc         1 CLA      0.029400
     87 HBA1       81.9161   57.8845   34.8351 dc         1 CLA      0.029400
     88 HAC2       73.0633   57.9619   44.9202 dc         1 CLA      0.029300
     89 HAC1       72.3254   57.9510   43.2530 dc         1 CLA      0.029300
     90 HAA2       78.9331   57.5064   34.3952 dc         1 CLA      0.028700
     91 HAA1       79.5040   59.0389   35.0333 dc         1 CLA      0.028700
     92 H203       84.3862   59.3271   48.1189 dc         1 CLA      0.065600
     93 H202       83.8128   59.1169   46.6714 dc         1 CLA      0.065600
     94 H201       83.6423   57.7339   47.9732 dc         1 CLA      0.065600
     95 H193       86.7324   57.3634   48.6252 dc         1 CLA      0.065600
     96 H192       85.2034   56.3299   48.4781 dc         1 CLA      0.065600
     97 H191       86.6151   56.1098   47.3512 dc         1 CLA      0.065600
     98 H172       86.8714   59.5383   47.0705 dc         1 CLA      0.027600
     99 H171       85.8848   59.4559   45.4299 dc         1 CLA      0.027600
    100 H162       88.3032   57.7911   46.2391 dc         1 CLA      0.002900
    101 H161       88.3530   59.1137   45.3944 dc         1 CLA      0.002900
    102 H152       86.8137   58.1091   43.7461 dc         1 CLA      0.029100
    103 H151       86.8997   56.6200   44.4981 dc         1 CLA      0.029100
    104 H143       89.5418   55.3475   44.5985 dc         1 CLA      0.063600
    105 H142       90.6665   56.1232   43.5438 dc         1 CLA      0.063600
    106 H141       90.2661   56.9927   44.9503 dc         1 CLA      0.063600
    107 H122       87.6958   55.6892   42.1084 dc         1 CLA      0.032500
    108 H121       89.3378   55.9504   41.7463 dc         1 CLA      0.032500
    109 H112       88.9668   58.2335   40.9032 dc         1 CLA      0.006600
    110 H111       87.3205   58.2323   41.3218 dc         1 CLA      0.006600
    111 H102       88.8075   56.4868   39.2809 dc         1 CLA      0.024100
    112 H101       87.9546   57.9039   38.9102 dc         1 CLA      0.024100
    113 HHD        73.2984   56.9853   41.2142 da         1 CLA      0.174300
    114 HHC        77.6233   60.5153   44.0375 da         1 CLA      0.136800
    115 HHB        81.7296   59.5323   39.4606 da         1 CLA      0.138300
    116 HBD        76.9001   56.4482   35.0481 dc         1 CLA      0.107700
    117 HAB        79.1090   62.1977   44.4295 da         1 CLA      0.155200
    118 H93        85.3852   57.3805   40.6454 dc         1 CLA      0.069500
    119 H92        85.1439   58.0633   39.1723 dc         1 CLA      0.069500
    120 H91        84.4256   56.4382   39.4382 dc         1 CLA      0.069500
    121 H8         86.5133   55.3349   39.9208 dc         1 CLA      0.029300
    122 H72        87.4068   55.1944   37.4425 dc         1 CLA      0.044400
    123 H71        86.4685   56.6387   37.0008 dc         1 CLA      0.044400
    124 H62        84.4192   55.5209   37.4482 dc         1 CLA      0.015600
    125 H61        85.3285   53.9511   38.1199 dc         1 CLA      0.015600
    126 H52        86.3491   53.7172   36.0270 dc         1 CLA      0.033200
    127 H51        85.5562   55.1705   35.4335 dc         1 CLA      0.033200
    128 H43        85.4403   51.8591   34.6933 dc         1 CLA      0.037000
    129 H42        85.0692   51.3485   36.3539 dc         1 CLA      0.037000
    130 H41        83.8211   51.3159   35.0792 dc         1 CLA      0.037000
    131 H3A        81.3818   58.8754   36.8744 dc         1 CLA      0.041100
    132 H2A        79.8974   56.3232   36.5728 dc         1 CLA      0.083100
    133 H2         82.5056   53.7771   36.7791 da         1 CLA      0.180900
    134 H18        85.1135   57.3030   46.0447 dc         1 CLA     -0.003900
    135 H13        89.2309   58.0908   43.3070 dc         1 CLA      0.019700
    136 H12        81.2425   53.6428   34.8874 dc         1 CLA      0.120400
    137 H11        82.7001   53.8527   33.7084 dc         1 CLA      0.120400
    138 C1         69.6369   61.5052   50.9318 Z1         2 LUT      0.509236
    139 C2         68.2341   61.3934   51.3802 Z2         2 LUT     -0.434695
    140 C3         67.4466   62.6417   51.6770 Z3         2 LUT      0.437453
    141 O3         67.7491   62.9926   53.0365 S1         2 LUT     -0.547129
    142 C4         67.9685   63.7985   50.8537 Z4         2 LUT     -0.468603
    143 C5         68.7736   63.4974   49.6667 Z5         2 LUT      0.279246
    144 C6         69.5795   62.4370   49.6857 Z6         2 LUT     -0.305473
    145 C7         70.2151   61.8784   48.4335 Z7         2 LUT      0.069402
    146 C8         70.8972   62.4828   47.4231 Z8         2 LUT     -0.191631
    147 C9         71.5144   61.8441   46.2209 Z9         2 LUT      0.196698
    148 C10        72.5172   62.6135   45.6956 Y1         2 LUT     -0.208611
    149 C11        73.2862   62.4466   44.4742 Y2         2 LUT      0.030784
    150 C12        74.4554   63.2033   44.2195 Y3         2 LUT     -0.220316
    151 C13        75.3637   63.0630   43.1449 Y4         2 LUT      0.215937
    152 C14        76.5987   63.7335   43.1132 Y5         2 LUT     -0.185793
    153 C15        77.6348   63.7447   42.0496 Y6         2 LUT     -0.057835
    154 C16        70.2410   60.0844   50.8822 Y7         2 LUT     -0.405615
    155 C17        70.4494   62.1972   52.0210 Y7         2 LUT     -0.405615
    156 C18        68.5040   64.4534   48.4712 Y9         2 LUT     -0.369639
    157 C19        71.0508   60.5787   45.6583 W1         2 LUT     -0.333362
    158 C20        74.8380   62.4007   41.8755 W2         2 LUT     -0.323439
    159 C21        88.9900   65.0717   35.7115 Z1         2 LUT      0.406104
    160 C22        89.5735   64.2761   34.5029 Z2         2 LUT     -0.404965
    161 C23        89.3910   64.9373   33.0944 Z3         2 LUT      0.391255
    162 O23        89.4912   63.8514   32.1274 S1         2 LUT     -0.528210
    163 C24        88.1556   65.7800   33.0140 W6         2 LUT     -0.258361
    164 C25        87.3597   66.1740   34.0241 Z5         2 LUT      0.133546
    165 C26        87.4698   65.4854   35.3835 W8         2 LUT     -0.147008
    166 C27        86.7528   66.2367   36.5178 Z7         2 LUT      0.023843
    167 C28        85.4090   65.9538   36.8223 Z8         2 LUT     -0.216987
    168 C29        84.7253   66.4386   38.1027 Z9         2 LUT      0.206524
    169 C30        83.5731   65.8195   38.5130 Y1         2 LUT     -0.215556
    170 C31        82.7786   65.9509   39.7109 Y2         2 LUT      0.025142
    171 C32        81.6418   65.2912   40.0847 Y3         2 LUT     -0.212209
    172 C33        80.8340   65.4187   41.3036 Y4         2 LUT      0.240937
    173 C34        79.7161   64.6364   41.2878 Y5         2 LUT     -0.218862
    174 C35        78.7114   64.5526   42.2744 Y6         2 LUT     -0.023547
    175 C36        89.9597   66.2611   36.1347 Y7         2 LUT     -0.393485
    176 C37        89.1005   64.0864   36.9348 Y7         2 LUT     -0.393485
    177 C38        86.1547   67.1218   33.9094 Y9         2 LUT     -0.387526
    178 C39        85.5030   67.3057   39.0503 W1         2 LUT     -0.322618
    179 C40        81.1898   66.5059   42.2338 W2         2 LUT     -0.358472
    180 H403       80.6310   66.4189   43.1160 R7         2 LUT      0.097720
    181 H402       82.2580   66.5276   42.3120 R7         2 LUT      0.097720
    182 H401       80.8631   67.4646   41.8365 R7         2 LUT      0.097720
    183 H393       84.8701   67.9336   39.7843 R4         2 LUT      0.082505
    184 H392       85.9564   66.7013   39.8470 R4         2 LUT      0.082505
    185 H391       86.2442   67.9533   38.5602 R4         2 LUT      0.082505
    186 H383       85.2341   66.5298   33.9773 R1         2 LUT      0.104030
    187 H382       86.0234   67.8811   34.6623 R1         2 LUT      0.104030
    188 H381       86.1325   67.6304   32.8941 R1         2 LUT      0.104030
    189 H373       89.9470   63.4162   36.8910 T4         2 LUT      0.089537
    190 H372       88.9954   64.6800   37.8672 T4         2 LUT      0.089537
    191 H371       88.2142   63.3815   37.0315 T4         2 LUT      0.089537
    192 H363       89.5577   66.8997   36.9168 T4         2 LUT      0.089537
    193 H362       90.8703   65.8187   36.4589 T4         2 LUT      0.089537
    194 H361       89.9994   66.9372   35.2545 T4         2 LUT      0.089537
    195 H222       90.6386   64.2164   34.6488 U2         2 LUT      0.127376
    196 H221       89.2809   63.2618   34.3536 U2         2 LUT      0.127376
    197 H203       73.8912   62.8119   41.4596 R7         2 LUT      0.087068
    198 H202       75.4419   62.5167   40.9595 R7         2 LUT      0.087068
    199 H201       74.6829   61.4180   42.0929 R7         2 LUT      0.087068
    200 H193       70.9608   60.6190   44.5534 R4         2 LUT      0.089716
    201 H192       71.7765   59.7566   45.9721 R4         2 LUT      0.089716
    202 H191       70.0793   60.3372   45.9415 R4         2 LUT      0.089716
    203 H183       67.5817   65.0856   48.6854 R1         2 LUT      0.094572
    204 H182       69.3232   65.1135   48.1405 R1         2 LUT      0.094572
    205 H181       68.3655   63.9143   47.5104 R1         2 LUT      0.094572
    206 H173       70.1631   63.2901   52.2108 T4         2 LUT      0.093752
    207 H172       70.5534   61.6728   52.9977 T4         2 LUT      0.093752
    208 H171       71.5364   62.3455   51.7239 T4         2 LUT      0.093752
    209 H163       71.2579   60.0929   50.4821 T4         2 LUT      0.093752
    210 H162       70.2265   59.5977   51.8701 T4         2 LUT      0.093752
    211 H161       69.6768   59.5072   50.2209 T4         2 LUT      0.093752
    212 HO3        67.0171   62.7027   53.6055 Q1         2 LUT      0.300121
    213 H8         71.0939   63.5780   47.4728 U7         2 LUT      0.080784
    214 H7         69.8857   60.8658   48.3161 U6         2 LUT      0.042190
    215 H42        67.0977   64.4772   50.6165 U5         2 LUT      0.145166
    216 H41        68.6044   64.4558   51.4929 U5         2 LUT      0.145166
    217 H35        78.7144   65.0952   43.2399 T3         2 LUT      0.077919
    218 H34        79.5549   64.0244   40.4113 T2         2 LUT      0.073626
    219 H32        81.3173   64.6112   39.3070 T1         2 LUT      0.092510
    220 H31        83.2548   66.5521   40.5107 U9         2 LUT      0.070048
    221 H30        83.1685   65.0347   37.8856 U8         2 LUT      0.085442
    222 H3         66.4008   62.5404   51.4394 U3         2 LUT     -0.031596
    223 H28        84.7468   65.2581   36.2048 U7         2 LUT      0.084728
    224 H27        87.3698   66.7413   37.1773 U6         2 LUT      0.087291
    225 H26        86.9288   64.5721   35.2098 Q6         2 LUT      0.075325
    226 H24        88.0162   66.2435   32.0538 Q5         2 LUT      0.094482
    227 H23        90.2236   65.6799   32.9181 U3         2 LUT     -0.024869
    228 H22        67.6736   60.8813   50.5959 U2         2 LUT      0.127376
    229 H21        68.3195   60.7773   52.3115 U2         2 LUT      0.127376
    230 H15        77.4292   63.1974   41.2132 T3         2 LUT      0.093200
    231 H14        76.9502   64.2723   43.9328 T2         2 LUT      0.068865
    232 H12        74.7083   63.8701   45.0973 T1         2 LUT      0.095507
    233 H11        73.1118   61.6601   43.7469 U9         2 LUT      0.068930
    234 H10        72.7605   63.4902   46.2386 U8         2 LUT      0.083911
    235 H1         90.2928   64.0414   31.5545 Q1         2 LUT      0.297311
@<TRIPOS>BOND
    1     6     1 1
    2     7     2 1
    3     8     3 1
    4     9     4 1
    5    11     4 1
    6    12     6 1
    7    13     9 1
    8    16     9 1
    9    25     5 1
   10    25    16 1
   11    26    10 1
   12    26    17 1
   13    27    18 1
   14    28    14 1
   15    28    19 1
   16    29    12 1
   17    30    13 1
   18    31    24 1
   19    32     1 1
   20    32    25 1
   21    33    21 1
   22    33    26 1
   23    34    22 1
   24    34    27 1
   25    35    23 1
   26    35    28 1
   27    36    12 1
   28    36    24 1
   29    37    13 1
   30    37    15 1
   31    38    31 1
   32    39    20 1
   33    39    32 1
   34    40     2 1
   35    40    33 1
   36    41     3 1
   37    41    34 1
   38    42     4 1
   39    42    35 1
   40    43    38 1
   41    44     5 1
   42    44    17 1
   43    44    39 1
   44    45    10 1
   45    45    18 1
   46    45    40 1
   47    46    19 1
   48    46    41 1
   49    47    14 1
   50    47    16 1
   51    47    42 1
   52    48    38 1
   53    49    48 1
   54    50    49 1
   55    51    50 1
   56    52    51 1
   57    53    51 1
   58    54    53 1
   59    55    54 1
   60    56    55 1
   61    57    56 1
   62    58    56 1
   63    59    58 1
   64    60    59 1
   65    61    60 1
   66    62    61 1
   67    63    61 1
   68    64    27 1
   69    64    46 1
   70    65     5 1
   71    65    10 1
   72    65    64 1
   73    65    14 1
   74    66    23 1
   75    67    23 1
   76    68    23 1
   77    69    22 1
   78    70    22 1
   79    71    22 1
   80    72    21 1
   81    73    21 1
   82    74    21 1
   83    75    20 1
   84    76    20 1
   85    77    20 1
   86    78    15 1
   87    79    15 1
   88    80    15 1
   89    81     8 1
   90    82     8 1
   91    83     8 1
   92    84     7 1
   93    85     7 1
   94    86     6 1
   95    87     6 1
   96    88     3 1
   97    89     3 1
   98    90     1 1
   99    91     1 1
  100    92    63 1
  101    93    63 1
  102    94    63 1
  103    95    62 1
  104    96    62 1
  105    97    62 1
  106    98    60 1
  107    99    60 1
  108   100    59 1
  109   101    59 1
  110   102    58 1
  111   103    58 1
  112   104    57 1
  113   105    57 1
  114   106    57 1
  115   107    55 1
  116   108    55 1
  117   109    54 1
  118   110    54 1
  119   111    53 1
  120   112    53 1
  121   113    19 1
  122   114    18 1
  123   115    17 1
  124   116     9 1
  125   117     2 1
  126   118    52 1
  127   119    52 1
  128   120    52 1
  129   121    51 1
  130   122    50 1
  131   123    50 1
  132   124    49 1
  133   125    49 1
  134   126    48 1
  135   127    48 1
  136   128    43 1
  137   129    43 1
  138   130    43 1
  139   131    39 1
  140   132    32 1
  141   133    31 1
  142   134    61 1
  143   135    56 1
  144   136    24 1
  145   137    24 1
  146   139   138 1
  147   140   139 1
  148   141   140 1
  149   142   140 1
  150   143   142 1
  151   144   138 1
  152   144   143 1
  153   145   144 1
  154   146   145 1
  155   147   146 1
  156   148   147 1
  157   149   148 1
  158   150   149 1
  159   151   150 1
  160   152   151 1
  161   153   152 1
  162   154   138 1
  163   155   138 1
  164   156   143 1
  165   157   147 1
  166   158   151 1
  167   160   159 1
  168   161   160 1
  169   162   161 1
  170   163   161 1
  171   164   163 1
  172   165   159 1
  173   165   164 1
  174   166   165 1
  175   167   166 1
  176   168   167 1
  177   169   168 1
  178   170   169 1
  179   171   170 1
  180   172   171 1
  181   173   172 1
  182   174   153 1
  183   174   173 1
  184   175   159 1
  185   176   159 1
  186   177   164 1
  187   178   168 1
  188   179   172 1
  189   180   179 1
  190   181   179 1
  191   182   179 1
  192   183   178 1
  193   184   178 1
  194   185   178 1
  195   186   177 1
  196   187   177 1
  197   188   177 1
  198   189   176 1
  199   190   176 1
  200   191   176 1
  201   192   175 1
  202   193   175 1
  203   194   175 1
  204   195   160 1
  205   196   160 1
  206   197   158 1
  207   198   158 1
  208   199   158 1
  209   200   157 1
  210   201   157 1
  211   202   157 1
  212   203   156 1
  213   204   156 1
  214   205   156 1
  215   206   155 1
  216   207   155 1
  217   208   155 1
  218   209   154 1
  219   210   154 1
  220   211   154 1
  221   212   141 1
  222   213   146 1
  223   214   145 1
  224   215   142 1
  225   216   142 1
  226   217   174 1
  227   218   173 1
  228   219   171 1
  229   220   170 1
  230   221   169 1
  231   222   140 1
  232   223   167 1
  233   224   166 1
  234   225   165 1
  235   226   163 1
  236   227   161 1
  237   228   139 1
  238   229   139 1
  239   230   153 1
  240   231   152 1
  241   232   150 1
  242   233   149 1
  243   234   148 1
  244   235   162 1
  245   65    153 1
  246   65    174 1
@<TRIPOS>SUBSTRUCTURE
      1 CLA               1 ****               0 ****  **** 
      2 LUT             138 ****               0 ****  **** 
