@<TRIPOS>MOLECULE
Cpptraj generated mol2 file.
  235   246     2     0     0
SMALL
USER_CHARGES


@<TRIPOS>ATOM
      1 CAA        79.6252   57.4228   34.7578 a2         1 CLA     -0.055900
      2 CAB        79.9078   61.6641   43.3613 c8         1 CLA     -0.148500
      3 CAC        72.8864   57.6933   43.0538 a2         1 CLA     -0.012600
      4 CAD        75.5080   54.8329   36.0246 ck         1 CLA      0.398800
      5 NA         78.7119   57.8755   38.0194 ns         1 CLA     -0.225500
      6 CBA        80.8651   57.3054   33.8313 a2         1 CLA     -0.135000
      7 CBB        80.9289   62.4949   43.7014 c0         1 CLA     -0.395200
      8 CBC        73.1027   56.2408   43.3998 a3         1 CLA     -0.037700
      9 CBD        76.9919   55.1922   35.7441 a1         1 CLA     -0.053900
     10 NB         78.6661   59.5819   40.4427 nm         1 CLA     -0.295700
     11 OBD        74.8217   54.0006   35.3971 o2         1 CLA     -0.494600
     12 CGA        81.2560   55.8952   33.4106 c4         1 CLA      0.827000
     13 CGD        77.9233   53.9944   36.0121 c4         1 CLA      0.655300
     14 ND         75.8956   57.1943   38.6427 nm         1 CLA     -0.291600
     15 CED        78.5078   52.2402   37.5616 a3         1 CLA      0.005400
     16 CHA        77.3938   56.2293   36.7776 cs         1 CLA     -0.123800
     17 CHB        80.5888   59.2229   38.8950 aa         1 CLA     -0.291900
     18 CHC        77.2780   60.0637   42.4799 aa         1 CLA     -0.090400
     19 CHD        74.0035   57.2295   40.2365 aa         1 CLA     -0.052000
     20 CMA        81.9805   56.7880   37.7145 a3         1 CLA     -0.230700
     21 CMB        82.1626   60.9239   41.1555 a3         1 CLA     -0.180800
     22 CMC        74.9554   59.5277   44.6334 a3         1 CLA     -0.134000
     23 CMD        72.6174   55.3826   37.9674 a3         1 CLA     -0.141100
     24 C1         82.2304   53.8039   34.2267 a2         1 CLA      0.023000
     25 C1A        78.5700   56.9546   37.0151 ac         1 CLA     -0.015100
     26 C1B        80.0135   59.7935   40.0858 cr         1 CLA      0.054700
     27 C1C        76.1904   59.2728   42.2659 cn         1 CLA     -0.005600
     28 C1D        74.5865   56.7715   39.0359 ap         1 CLA     -0.047300
     29 O1A        81.0591   55.3561   32.3365 o2         1 CLA     -0.610800
     30 O1D        78.8622   53.6443   35.2723 o2         1 CLA     -0.558200
     31 C2         82.9436   53.2400   35.4433 c8         1 CLA     -0.325100
     32 C2A        79.8190   56.9073   36.1709 a1         1 CLA      0.098600
     33 C2B        80.7049   60.5388   41.1097 cb         1 CLA      0.088500
     34 C2C        75.1019   58.9528   43.2477 cb         1 CLA      0.053700
     35 C2D        74.0345   55.8537   38.0598 cb         1 CLA      0.058900
     36 O2A        81.8496   55.1869   34.4853 o1         1 CLA     -0.437200
     37 O2D        77.6815   53.3794   37.1875 o1         1 CLA     -0.357600
     38 C3         84.2460   52.8637   35.5611 c5         1 CLA      0.031200
     39 C3A        80.8708   57.6551   36.9556 a1         1 CLA      0.166800
     40 C3B        79.7253   60.8850   42.0666 cb         1 CLA      0.035000
     41 C3C        74.1953   58.2788   42.5370 cb         1 CLA     -0.089900
     42 C3D        75.1285   55.6321   37.1733 cb         1 CLA     -0.035900
     43 C4         84.7932   51.5385   35.0479 a3         1 CLA     -0.053300
     44 C4A        80.0057   58.3344   38.0180 ac         1 CLA      0.001800
     45 C4B        78.4699   60.1780   41.7188 cn         1 CLA     -0.020900
     46 C4C        74.6945   58.0178   41.2324 cr         1 CLA     -0.044400
     47 C4D        76.2336   56.3923   37.6038 c6         1 CLA     -0.046000
     48 C5         85.1861   53.7422   36.2736 a2         1 CLA     -0.070400
     49 C6         85.8955   53.3207   37.5788 a2         1 CLA      0.043900
     50 C7         86.9209   54.2788   38.2212 a2         1 CLA     -0.150000
     51 C8         86.3930   55.3385   39.2076 a1         1 CLA      0.064200
     52 C9         85.5325   56.4775   38.5900 a3         1 CLA     -0.259300
     53 C10        87.6425   55.9364   39.8647 a2         1 CLA     -0.071900
     54 C11        87.3625   56.5316   41.3031 a2         1 CLA      0.014500
     55 C12        86.9659   55.4234   42.3037 a2         1 CLA     -0.112100
     56 C13        87.1061   55.8344   43.7983 a1         1 CLA      0.089200
     57 C14        86.9427   54.5789   44.7394 a3         1 CLA     -0.239100
     58 C15        86.0461   56.9793   44.1063 a2         1 CLA     -0.102200
     59 C16        86.2110   57.6173   45.4503 a2         1 CLA      0.023900
     60 C17        85.3295   58.9109   45.5553 a2         1 CLA     -0.105700
     61 C18        83.8514   58.8448   45.7799 a1         1 CLA      0.206800
     62 C19        83.4501   58.0038   46.9948 a3         1 CLA     -0.280100
     63 C20        83.1767   60.3070   45.8698 a3         1 CLA     -0.280100
     64 NC         75.9054   58.6803   41.0617 nx         1 CLA     -0.309200
     65 MG         77.1680   58.5065   39.4913 mg         1 CLA      0.895000
     66 HMD3       71.9552   56.1241   37.4884 dc         1 CLA      0.064300
     67 HMD2       72.6650   54.4207   37.4051 dc         1 CLA      0.064300
     68 HMD1       72.1032   55.1224   38.9365 dc         1 CLA      0.064300
     69 HMC3       75.1341   58.8224   45.4452 dc         1 CLA      0.052100
     70 HMC2       75.6992   60.3147   44.7669 dc         1 CLA      0.052100
     71 HMC1       73.9448   59.9086   44.7236 dc         1 CLA      0.052100
     72 HMB3       82.2922   61.9986   40.9659 dc         1 CLA      0.063600
     73 HMB2       82.6010   60.7197   42.1054 dc         1 CLA      0.063600
     74 HMB1       82.7030   60.3893   40.4096 dc         1 CLA      0.063600
     75 HMA3       82.7678   57.4278   38.1670 dc         1 CLA      0.058300
     76 HMA2       81.4315   56.2227   38.4829 dc         1 CLA      0.058300
     77 HMA1       82.4222   56.0332   37.1169 dc         1 CLA      0.058300
     78 HED3       79.3915   52.7048   37.9783 dc         1 CLA      0.079300
     79 HED2       78.0191   51.5448   38.2833 dc         1 CLA      0.079300
     80 HED1       78.7415   51.6097   36.6671 dc         1 CLA      0.079300
     81 HBC3       73.8943   56.2145   44.1072 dc         1 CLA      0.016300
     82 HBC2       72.2236   55.7075   43.7866 dc         1 CLA      0.016300
     83 HBC1       73.3738   55.5999   42.5727 dc         1 CLA      0.016300
     84 HBB2       81.0300   62.9661   44.6805 da         1 CLA      0.183000
     85 HBB1       81.6082   62.8684   42.8960 da         1 CLA      0.183000
     86 HBA2       80.6051   57.9114   32.9016 dc         1 CLA      0.029400
     87 HBA1       81.7511   57.8466   34.2113 dc         1 CLA      0.029400
     88 HAC2       72.6322   58.2293   43.9850 dc         1 CLA      0.029300
     89 HAC1       72.1192   57.6650   42.1952 dc         1 CLA      0.029300
     90 HAA2       78.7911   56.8787   34.3247 dc         1 CLA      0.028700
     91 HAA1       79.2760   58.4894   34.8405 dc         1 CLA      0.028700
     92 H203       83.5106   61.0079   46.6952 dc         1 CLA      0.065600
     93 H202       83.4291   60.8011   44.8686 dc         1 CLA      0.065600
     94 H201       82.1183   60.0926   45.8850 dc         1 CLA      0.065600
     95 H193       83.9853   58.4355   47.8614 dc         1 CLA      0.065600
     96 H192       82.3928   58.1525   47.0822 dc         1 CLA      0.065600
     97 H191       83.5100   56.9306   46.8426 dc         1 CLA      0.065600
     98 H172       85.8032   59.3913   46.3995 dc         1 CLA      0.027600
     99 H171       85.4746   59.5330   44.6597 dc         1 CLA      0.027600
    100 H162       86.0809   56.9622   46.3120 dc         1 CLA      0.002900
    101 H161       87.1777   58.0530   45.5090 dc         1 CLA      0.002900
    102 H152       86.1693   57.8023   43.3197 dc         1 CLA      0.029100
    103 H151       84.9686   56.6685   44.0149 dc         1 CLA      0.029100
    104 H143       85.9691   54.0293   44.5670 dc         1 CLA      0.063600
    105 H142       87.7449   53.8266   44.7386 dc         1 CLA      0.063600
    106 H141       87.0551   54.8461   45.7907 dc         1 CLA      0.063600
    107 H122       85.9751   55.1784   42.0727 dc         1 CLA      0.032500
    108 H121       87.6353   54.5215   42.2212 dc         1 CLA      0.032500
    109 H112       88.2973   56.9467   41.6257 dc         1 CLA      0.006600
    110 H111       86.6768   57.3868   41.3172 dc         1 CLA      0.006600
    111 H102       88.3657   55.1113   39.9407 dc         1 CLA      0.024100
    112 H101       87.9694   56.7869   39.2495 dc         1 CLA      0.024100
    113 HHD        72.9973   56.9321   40.4985 da         1 CLA      0.174300
    114 HHC        77.4167   60.5390   43.4287 da         1 CLA      0.136800
    115 HHB        81.6683   59.4019   38.8103 da         1 CLA      0.138300
    116 HBD        77.1096   55.5581   34.7680 dc         1 CLA      0.107700
    117 HAB        79.1690   61.5533   44.1543 da         1 CLA      0.155200
    118 H93        86.0076   56.7394   37.6353 dc         1 CLA      0.069500
    119 H92        84.5545   56.2221   38.3249 dc         1 CLA      0.069500
    120 H91        85.4628   57.3558   39.2243 dc         1 CLA      0.069500
    121 H8         85.7165   54.7386   39.8909 dc         1 CLA      0.029300
    122 H72        87.6588   53.6630   38.7660 dc         1 CLA      0.044400
    123 H71        87.4784   54.7583   37.4284 dc         1 CLA      0.044400
    124 H62        85.1761   53.0293   38.3609 dc         1 CLA      0.015600
    125 H61        86.5327   52.5114   37.3153 dc         1 CLA      0.015600
    126 H52        85.9477   53.9832   35.5035 dc         1 CLA      0.033200
    127 H51        84.6922   54.6593   36.5176 dc         1 CLA      0.033200
    128 H43        85.7657   51.6859   34.4966 dc         1 CLA      0.037000
    129 H42        84.7840   50.8037   35.8929 dc         1 CLA      0.037000
    130 H41        84.0078   51.1276   34.3780 dc         1 CLA      0.037000
    131 H3A        81.4158   58.3816   36.3608 dc         1 CLA      0.041100
    132 H2A        80.1645   55.9095   36.0985 dc         1 CLA      0.083100
    133 H2         82.2987   52.9003   36.1979 da         1 CLA      0.180900
    134 H18        83.4927   58.2738   44.9568 dc         1 CLA     -0.003900
    135 H13        88.0635   56.2523   43.8974 dc         1 CLA      0.019700
    136 H12        81.3796   53.2643   33.8614 dc         1 CLA      0.120400
    137 H11        82.9568   53.8980   33.3987 dc         1 CLA      0.120400
    138 C1         70.4577   61.0939   50.3078 Z1         2 LUT      0.509236
    139 C2         69.0822   60.7301   51.0627 Z2         2 LUT     -0.434695
    140 C3         68.1008   61.8099   51.4788 Z3         2 LUT      0.437453
    141 O3         68.4215   62.3309   52.7429 S1         2 LUT     -0.547129
    142 C4         68.0988   62.8955   50.3954 Z4         2 LUT     -0.468603
    143 C5         68.9101   62.7453   49.2225 Z5         2 LUT      0.279246
    144 C6         69.9934   61.9092   49.1068 Z6         2 LUT     -0.305473
    145 C7         70.3946   61.4821   47.7520 Z7         2 LUT      0.069402
    146 C8         71.1381   62.1760   46.8565 Z8         2 LUT     -0.191631
    147 C9         71.5834   61.8809   45.4696 Z9         2 LUT      0.196698
    148 C10        72.6357   62.6010   44.9015 Y1         2 LUT     -0.208611
    149 C11        73.3243   62.5214   43.6337 Y2         2 LUT      0.030784
    150 C12        74.6222   63.0497   43.5007 Y3         2 LUT     -0.220316
    151 C13        75.4207   62.8269   42.3242 Y4         2 LUT      0.215937
    152 C14        76.6476   63.4667   42.3159 Y5         2 LUT     -0.185793
    153 C15        77.6604   63.4712   41.3722 Y6         2 LUT     -0.057835
    154 C16        71.2576   59.7764   50.1995 Y7         2 LUT     -0.405615
    155 C17        71.2281   61.9703   51.3532 Y7         2 LUT     -0.405615
    156 C18        68.4788   63.7273   48.1064 Y9         2 LUT     -0.369639
    157 C19        71.0364   60.5798   44.8736 W1         2 LUT     -0.333362
    158 C20        74.6988   62.2278   41.1525 W2         2 LUT     -0.323439
    159 C21        89.0701   64.1037   34.8725 Z1         2 LUT      0.406104
    160 C22        89.8494   63.4909   33.6259 Z2         2 LUT     -0.404965
    161 C23        90.2861   64.5520   32.6287 Z3         2 LUT      0.391255
    162 O23        91.0299   64.0871   31.5435 S1         2 LUT     -0.528210
    163 C24        89.1670   65.5515   32.2821 W6         2 LUT     -0.258361
    164 C25        87.9860   65.6881   32.9742 Z5         2 LUT      0.133546
    165 C26        87.6697   64.7871   34.2305 W8         2 LUT     -0.147008
    166 C27        86.7142   65.3611   35.2983 Z7         2 LUT      0.023843
    167 C28        85.5297   64.8429   35.8027 Z8         2 LUT     -0.216987
    168 C29        84.9531   65.4143   37.0864 Z9         2 LUT      0.206524
    169 C30        83.8876   64.7241   37.6558 Y1         2 LUT     -0.215556
    170 C31        83.1840   65.0392   38.8966 Y2         2 LUT      0.025142
    171 C32        82.0020   64.4619   39.2462 Y3         2 LUT     -0.212209
    172 C33        81.2077   64.5392   40.4476 Y4         2 LUT      0.240937
    173 C34        79.9390   63.9714   40.4362 Y5         2 LUT     -0.218862
    174 C35        78.8324   64.1450   41.3821 Y6         2 LUT     -0.023547
    175 C36        89.8795   65.0983   35.7709 Y7         2 LUT     -0.393485
    176 C37        88.7464   62.9645   35.8009 Y7         2 LUT     -0.393485
    177 C38        86.9433   66.7024   32.5487 Y9         2 LUT     -0.387526
    178 C39        85.5253   66.7212   37.6636 W1         2 LUT     -0.322618
    179 C40        81.4382   65.7455   41.3055 W2         2 LUT     -0.358472
    180 H403       81.1853   66.7504   40.8254 R7         2 LUT      0.097720
    181 H402       80.8894   65.8284   42.2499 R7         2 LUT      0.097720
    182 H401       82.5293   65.7616   41.5721 R7         2 LUT      0.097720
    183 H393       85.3055   67.5941   37.0835 R4         2 LUT      0.082505
    184 H392       85.0506   67.0737   38.5095 R4         2 LUT      0.082505
    185 H391       86.5767   66.6780   37.9242 R4         2 LUT      0.082505
    186 H383       85.8672   66.4996   32.7184 R1         2 LUT      0.104030
    187 H382       87.2033   67.6895   32.9735 R1         2 LUT      0.104030
    188 H381       87.0085   66.7678   31.4968 R1         2 LUT      0.104030
    189 H373       89.6537   62.3842   36.0263 T4         2 LUT      0.089537
    190 H372       88.1842   63.2685   36.7119 T4         2 LUT      0.089537
    191 H371       88.0967   62.2442   35.2816 T4         2 LUT      0.089537
    192 H363       90.2511   65.9656   35.2749 T4         2 LUT      0.089537
    193 H362       89.2588   65.5494   36.5619 T4         2 LUT      0.089537
    194 H361       90.7221   64.4846   36.1709 T4         2 LUT      0.089537
    195 H222       90.7481   63.0917   33.9679 U2         2 LUT      0.127376
    196 H221       89.2674   62.6809   33.1563 U2         2 LUT      0.127376
    197 H203       73.8245   62.8083   40.9368 R7         2 LUT      0.087068
    198 H202       75.3737   62.1657   40.2920 R7         2 LUT      0.087068
    199 H201       74.3247   61.2261   41.2919 R7         2 LUT      0.087068
    200 H193       69.9882   60.7824   44.6232 R4         2 LUT      0.089716
    201 H192       71.5656   60.2338   44.0057 R4         2 LUT      0.089716
    202 H191       71.1875   59.7218   45.5843 R4         2 LUT      0.089716
    203 H183       69.0982   64.6071   48.0638 R1         2 LUT      0.094572
    204 H182       68.4945   63.1080   47.1653 R1         2 LUT      0.094572
    205 H181       67.3990   63.9443   48.2786 R1         2 LUT      0.094572
    206 H173       71.3372   61.3693   52.2007 T4         2 LUT      0.093752
    207 H172       72.2125   62.2507   50.9306 T4         2 LUT      0.093752
    208 H171       70.7528   62.8771   51.7093 T4         2 LUT      0.093752
    209 H163       72.3289   59.8372   49.8926 T4         2 LUT      0.093752
    210 H162       71.2293   59.0724   51.0474 T4         2 LUT      0.093752
    211 H161       70.7804   59.1529   49.4532 T4         2 LUT      0.093752
    212 HO3        68.1697   61.8534   53.5325 Q1         2 LUT      0.300121
    213 H8         71.5646   63.0837   47.2954 U7         2 LUT      0.080784
    214 H7         69.9695   60.5464   47.4724 U6         2 LUT      0.042190
    215 H42        67.0897   63.3030   50.1986 U5         2 LUT      0.145166
    216 H41        68.7280   63.7651   50.8073 U5         2 LUT      0.145166
    217 H35        79.0041   64.8991   42.1567 T3         2 LUT      0.077919
    218 H34        79.6669   63.5730   39.4663 T2         2 LUT      0.073626
    219 H32        81.6012   63.8438   38.5449 T1         2 LUT      0.092510
    220 H31        83.6702   65.7691   39.5643 U9         2 LUT      0.070048
    221 H30        83.6148   63.7465   37.1389 U8         2 LUT      0.085442
    222 H3         67.2486   61.2746   51.2938 U3         2 LUT     -0.031596
    223 H28        85.1057   63.9708   35.3449 U7         2 LUT      0.084728
    224 H27        87.0584   66.1609   35.8595 U6         2 LUT      0.087291
    225 H26        87.1943   63.8510   33.8750 Q6         2 LUT      0.075325
    226 H24        89.4817   66.1512   31.4211 Q5         2 LUT      0.094482
    227 H23        91.0122   65.2076   33.0961 U3         2 LUT     -0.024869
    228 H22        68.4723   60.1315   50.3301 U2         2 LUT      0.127376
    229 H21        69.3400   60.1164   51.8442 U2         2 LUT      0.127376
    230 H15        77.6174   62.6978   40.6089 T3         2 LUT      0.093200
    231 H14        76.7930   64.1635   43.1198 T2         2 LUT      0.068865
    232 H12        75.0859   63.6010   44.3143 T1         2 LUT      0.095507
    233 H11        72.8864   61.9068   42.8333 U9         2 LUT      0.068930
    234 H10        73.1283   63.3759   45.4988 U8         2 LUT      0.083911
    235 H1         90.5214   63.4588   31.0387 Q1         2 LUT      0.297311
@<TRIPOS>BOND
    1     6     1 1
    2     7     2 1
    3     8     3 1
    4     9     4 1
    5    11     4 1
    6    12     6 1
    7    13     9 1
    8    16     9 1
    9    25     5 1
   10    25    16 1
   11    26    10 1
   12    26    17 1
   13    27    18 1
   14    28    14 1
   15    28    19 1
   16    29    12 1
   17    30    13 1
   18    31    24 1
   19    32     1 1
   20    32    25 1
   21    33    21 1
   22    33    26 1
   23    34    22 1
   24    34    27 1
   25    35    23 1
   26    35    28 1
   27    36    12 1
   28    36    24 1
   29    37    13 1
   30    37    15 1
   31    38    31 1
   32    39    20 1
   33    39    32 1
   34    40     2 1
   35    40    33 1
   36    41     3 1
   37    41    34 1
   38    42     4 1
   39    42    35 1
   40    43    38 1
   41    44     5 1
   42    44    17 1
   43    44    39 1
   44    45    10 1
   45    45    18 1
   46    45    40 1
   47    46    19 1
   48    46    41 1
   49    47    14 1
   50    47    16 1
   51    47    42 1
   52    48    38 1
   53    49    48 1
   54    50    49 1
   55    51    50 1
   56    52    51 1
   57    53    51 1
   58    54    53 1
   59    55    54 1
   60    56    55 1
   61    57    56 1
   62    58    56 1
   63    59    58 1
   64    60    59 1
   65    61    60 1
   66    62    61 1
   67    63    61 1
   68    64    27 1
   69    64    46 1
   70    65     5 1
   71    65    10 1
   72    65    64 1
   73    65    14 1
   74    66    23 1
   75    67    23 1
   76    68    23 1
   77    69    22 1
   78    70    22 1
   79    71    22 1
   80    72    21 1
   81    73    21 1
   82    74    21 1
   83    75    20 1
   84    76    20 1
   85    77    20 1
   86    78    15 1
   87    79    15 1
   88    80    15 1
   89    81     8 1
   90    82     8 1
   91    83     8 1
   92    84     7 1
   93    85     7 1
   94    86     6 1
   95    87     6 1
   96    88     3 1
   97    89     3 1
   98    90     1 1
   99    91     1 1
  100    92    63 1
  101    93    63 1
  102    94    63 1
  103    95    62 1
  104    96    62 1
  105    97    62 1
  106    98    60 1
  107    99    60 1
  108   100    59 1
  109   101    59 1
  110   102    58 1
  111   103    58 1
  112   104    57 1
  113   105    57 1
  114   106    57 1
  115   107    55 1
  116   108    55 1
  117   109    54 1
  118   110    54 1
  119   111    53 1
  120   112    53 1
  121   113    19 1
  122   114    18 1
  123   115    17 1
  124   116     9 1
  125   117     2 1
  126   118    52 1
  127   119    52 1
  128   120    52 1
  129   121    51 1
  130   122    50 1
  131   123    50 1
  132   124    49 1
  133   125    49 1
  134   126    48 1
  135   127    48 1
  136   128    43 1
  137   129    43 1
  138   130    43 1
  139   131    39 1
  140   132    32 1
  141   133    31 1
  142   134    61 1
  143   135    56 1
  144   136    24 1
  145   137    24 1
  146   139   138 1
  147   140   139 1
  148   141   140 1
  149   142   140 1
  150   143   142 1
  151   144   138 1
  152   144   143 1
  153   145   144 1
  154   146   145 1
  155   147   146 1
  156   148   147 1
  157   149   148 1
  158   150   149 1
  159   151   150 1
  160   152   151 1
  161   153   152 1
  162   154   138 1
  163   155   138 1
  164   156   143 1
  165   157   147 1
  166   158   151 1
  167   160   159 1
  168   161   160 1
  169   162   161 1
  170   163   161 1
  171   164   163 1
  172   165   159 1
  173   165   164 1
  174   166   165 1
  175   167   166 1
  176   168   167 1
  177   169   168 1
  178   170   169 1
  179   171   170 1
  180   172   171 1
  181   173   172 1
  182   174   153 1
  183   174   173 1
  184   175   159 1
  185   176   159 1
  186   177   164 1
  187   178   168 1
  188   179   172 1
  189   180   179 1
  190   181   179 1
  191   182   179 1
  192   183   178 1
  193   184   178 1
  194   185   178 1
  195   186   177 1
  196   187   177 1
  197   188   177 1
  198   189   176 1
  199   190   176 1
  200   191   176 1
  201   192   175 1
  202   193   175 1
  203   194   175 1
  204   195   160 1
  205   196   160 1
  206   197   158 1
  207   198   158 1
  208   199   158 1
  209   200   157 1
  210   201   157 1
  211   202   157 1
  212   203   156 1
  213   204   156 1
  214   205   156 1
  215   206   155 1
  216   207   155 1
  217   208   155 1
  218   209   154 1
  219   210   154 1
  220   211   154 1
  221   212   141 1
  222   213   146 1
  223   214   145 1
  224   215   142 1
  225   216   142 1
  226   217   174 1
  227   218   173 1
  228   219   171 1
  229   220   170 1
  230   221   169 1
  231   222   140 1
  232   223   167 1
  233   224   166 1
  234   225   165 1
  235   226   163 1
  236   227   161 1
  237   228   139 1
  238   229   139 1
  239   230   153 1
  240   231   152 1
  241   232   150 1
  242   233   149 1
  243   234   148 1
  244   235   162 1
  245   65    153 1
  246   65    174 1
@<TRIPOS>SUBSTRUCTURE
      1 CLA               1 ****               0 ****  **** 
      2 LUT             138 ****               0 ****  **** 
