@<TRIPOS>MOLECULE
Cpptraj generated mol2 file.
  235   246     2     0     0
SMALL
USER_CHARGES


@<TRIPOS>ATOM
      1 CAA        79.6468   58.0029   35.0846 a2         1 CLA     -0.055900
      2 CAB        79.9191   62.2101   43.8233 c8         1 CLA     -0.148500
      3 CAC        72.8475   58.3081   43.6474 a2         1 CLA     -0.012600
      4 CAD        75.5096   55.4444   36.4034 ck         1 CLA      0.398800
      5 NA         78.7509   58.4286   38.4918 ns         1 CLA     -0.225500
      6 CBA        80.8508   57.8334   34.1040 a2         1 CLA     -0.135000
      7 CBB        80.7738   61.8749   44.7555 c0         1 CLA     -0.395200
      8 CBC        72.6718   56.8127   43.7624 a3         1 CLA     -0.037700
      9 CBD        77.0967   55.8355   36.0700 a1         1 CLA     -0.053900
     10 NB         78.6252   60.2240   40.8696 nm         1 CLA     -0.295700
     11 OBD        74.7626   54.5997   35.8695 o2         1 CLA     -0.494600
     12 CGA        81.3035   56.3917   33.8292 c4         1 CLA      0.827000
     13 CGD        77.9197   54.5332   35.8590 c4         1 CLA      0.655300
     14 ND         75.9878   57.7060   39.0811 nm         1 CLA     -0.291600
     15 CED        78.0982   52.2452   36.5904 a3         1 CLA      0.005400
     16 CHA        77.4063   56.8631   37.2449 cs         1 CLA     -0.123800
     17 CHB        80.5037   60.0003   39.2850 aa         1 CLA     -0.291900
     18 CHC        77.5173   60.3833   43.0268 aa         1 CLA     -0.090400
     19 CHD        74.1244   57.7786   40.6889 aa         1 CLA     -0.052000
     20 CMA        82.0005   57.7102   37.9334 a3         1 CLA     -0.230700
     21 CMB        82.0340   62.0100   41.2096 a3         1 CLA     -0.180800
     22 CMC        75.1706   59.9456   45.1532 a3         1 CLA     -0.134000
     23 CMD        72.8202   55.7816   38.6183 a3         1 CLA     -0.141100
     24 C1         82.1846   54.4217   35.0727 a2         1 CLA      0.023000
     25 C1A        78.5791   57.5453   37.4108 ac         1 CLA     -0.015100
     26 C1B        79.8981   60.5191   40.4481 cr         1 CLA      0.054700
     27 C1C        76.2464   59.7807   42.7717 cn         1 CLA     -0.005600
     28 C1D        74.6759   57.3168   39.4726 ap         1 CLA     -0.047300
     29 O1A        81.0213   55.6995   32.8634 o2         1 CLA     -0.610800
     30 O1D        78.7598   54.3782   34.9833 o2         1 CLA     -0.558200
     31 C2         82.7125   54.1408   36.4921 c8         1 CLA     -0.325100
     32 C2A        79.7643   57.4605   36.5244 a1         1 CLA      0.098600
     33 C2B        80.6454   61.3494   41.4597 cb         1 CLA      0.088500
     34 C2C        75.1531   59.5516   43.7307 cb         1 CLA      0.053700
     35 C2D        74.1540   56.3559   38.4884 cb         1 CLA      0.058900
     36 O2A        82.0458   55.9174   34.9428 o1         1 CLA     -0.437200
     37 O2D        77.5187   53.5613   36.7854 o1         1 CLA     -0.357600
     38 C3         83.8296   53.4630   36.7988 c5         1 CLA      0.031200
     39 C3A        80.7947   58.3036   37.2855 a1         1 CLA      0.166800
     40 C3B        79.7250   61.4931   42.5230 cb         1 CLA      0.035000
     41 C3C        74.1566   58.8636   43.0233 cb         1 CLA     -0.089900
     42 C3D        75.1853   56.1155   37.6156 cb         1 CLA     -0.035900
     43 C4         83.8970   51.9748   36.9976 a3         1 CLA     -0.053300
     44 C4A        79.9640   58.9934   38.4424 ac         1 CLA      0.001800
     45 C4B        78.5333   60.6104   42.1564 cn         1 CLA     -0.020900
     46 C4C        74.6800   58.6056   41.6838 cr         1 CLA     -0.044400
     47 C4D        76.2435   56.9910   38.0122 c6         1 CLA     -0.046000
     48 C5         85.0587   54.3324   37.0431 a2         1 CLA     -0.070400
     49 C6         85.2012   54.7901   38.4983 a2         1 CLA      0.043900
     50 C7         86.6653   55.2588   38.8862 a2         1 CLA     -0.150000
     51 C8         86.7536   56.2549   40.1425 a1         1 CLA      0.064200
     52 C9         86.2705   57.7090   39.7997 a3         1 CLA     -0.259300
     53 C10        88.2241   56.3988   40.7327 a2         1 CLA     -0.071900
     54 C11        88.3754   57.1537   42.0815 a2         1 CLA      0.014500
     55 C12        87.6619   56.5331   43.2339 a2         1 CLA     -0.112100
     56 C13        88.1707   57.0335   44.6196 a1         1 CLA      0.089200
     57 C14        87.5762   56.1790   45.8289 a3         1 CLA     -0.239100
     58 C15        87.9554   58.4828   44.8151 a2         1 CLA     -0.102200
     59 C16        88.4013   58.9687   46.2071 a2         1 CLA      0.023900
     60 C17        88.6346   60.4547   46.5229 a2         1 CLA     -0.105700
     61 C18        87.3592   61.2414   46.9555 a1         1 CLA      0.206800
     62 C19        86.5454   60.5252   48.0287 a3         1 CLA     -0.280100
     63 C20        87.7733   62.6566   47.3700 a3         1 CLA     -0.280100
     64 NC         75.9570   59.1595   41.5752 nx         1 CLA     -0.309200
     65 MG         77.1671   59.0056   39.8576 mg         1 CLA      0.895000
     66 HMD3       72.7661   54.8936   38.0330 dc         1 CLA      0.064300
     67 HMD2       72.5077   55.3827   39.6367 dc         1 CLA      0.064300
     68 HMD1       72.1420   56.5125   38.3000 dc         1 CLA      0.064300
     69 HMC3       75.7646   60.8161   45.4350 dc         1 CLA      0.052100
     70 HMC2       74.1475   60.2544   45.3859 dc         1 CLA      0.052100
     71 HMC1       75.5189   59.0274   45.7967 dc         1 CLA      0.052100
     72 HMB3       81.9855   62.7050   40.4434 dc         1 CLA      0.063600
     73 HMB2       82.5301   62.3225   42.1753 dc         1 CLA      0.063600
     74 HMB1       82.6768   61.2276   40.7392 dc         1 CLA      0.063600
     75 HMA3       82.6036   58.5652   38.1797 dc         1 CLA      0.058300
     76 HMA2       81.7561   57.0927   38.7422 dc         1 CLA      0.058300
     77 HMA1       82.6364   57.1253   37.2664 dc         1 CLA      0.058300
     78 HED3       77.8285   51.8761   35.5677 dc         1 CLA      0.079300
     79 HED2       79.1823   52.2207   36.7077 dc         1 CLA      0.079300
     80 HED1       77.5246   51.5255   37.2819 dc         1 CLA      0.079300
     81 HBC3       72.1338   56.7138   44.7394 dc         1 CLA      0.016300
     82 HBC2       72.1427   56.3462   42.9122 dc         1 CLA      0.016300
     83 HBC1       73.7130   56.3915   43.7535 dc         1 CLA      0.016300
     84 HBB2       80.7536   62.3241   45.7778 da         1 CLA      0.183000
     85 HBB1       81.4341   61.0060   44.6186 da         1 CLA      0.183000
     86 HBA2       80.5472   58.2684   33.1690 dc         1 CLA      0.029400
     87 HBA1       81.7353   58.2998   34.5274 dc         1 CLA      0.029400
     88 HAC2       72.6207   58.7866   44.5892 dc         1 CLA      0.029300
     89 HAC1       71.9810   58.5700   43.0083 dc         1 CLA      0.029300
     90 HAA2       78.8634   57.5051   34.5788 dc         1 CLA      0.028700
     91 HAA1       79.3429   59.0692   34.9767 dc         1 CLA      0.028700
     92 H203       88.2055   63.2032   46.5035 dc         1 CLA      0.065600
     93 H202       86.8526   63.1553   47.8418 dc         1 CLA      0.065600
     94 H201       88.4731   62.5357   48.1501 dc         1 CLA      0.065600
     95 H193       85.8253   59.7799   47.7207 dc         1 CLA      0.065600
     96 H192       87.1876   60.0958   48.7669 dc         1 CLA      0.065600
     97 H191       85.9302   61.2304   48.5455 dc         1 CLA      0.065600
     98 H172       89.1934   60.6206   47.4372 dc         1 CLA      0.027600
     99 H171       89.0956   61.0098   45.6768 dc         1 CLA      0.027600
    100 H162       87.7700   58.6501   47.0064 dc         1 CLA      0.002900
    101 H161       89.4457   58.5364   46.2452 dc         1 CLA      0.002900
    102 H152       88.4206   59.0286   43.9543 dc         1 CLA      0.029100
    103 H151       86.9557   58.8348   44.6528 dc         1 CLA      0.029100
    104 H143       86.6137   56.6224   45.9896 dc         1 CLA      0.063600
    105 H142       87.5812   55.1970   45.4934 dc         1 CLA      0.063600
    106 H141       88.2030   56.3203   46.7146 dc         1 CLA      0.063600
    107 H122       86.5890   56.5328   43.0796 dc         1 CLA      0.032500
    108 H121       88.1105   55.5474   43.2204 dc         1 CLA      0.032500
    109 H112       89.4722   57.0996   42.0843 dc         1 CLA      0.006600
    110 H111       88.0859   58.1442   41.9421 dc         1 CLA      0.006600
    111 H102       88.6127   55.3849   40.9531 dc         1 CLA      0.024100
    112 H101       88.7456   56.8676   39.8917 dc         1 CLA      0.024100
    113 HHD        73.1292   57.4026   40.9419 da         1 CLA      0.174300
    114 HHC        77.4850   61.0237   43.9408 da         1 CLA      0.136800
    115 HHB        81.4518   60.4194   38.9981 da         1 CLA      0.138300
    116 HBD        77.2389   56.3823   35.1328 dc         1 CLA      0.107700
    117 HAB        79.2099   63.0329   44.1255 da         1 CLA      0.155200
    118 H93        86.9167   58.1386   39.0221 dc         1 CLA      0.069500
    119 H92        85.2515   57.7569   39.4805 dc         1 CLA      0.069500
    120 H91        86.3089   58.3644   40.6859 dc         1 CLA      0.069500
    121 H8         86.1891   55.8012   40.9215 dc         1 CLA      0.029300
    122 H72        87.2362   54.3023   39.0554 dc         1 CLA      0.044400
    123 H71        87.0940   55.8089   38.0313 dc         1 CLA      0.044400
    124 H62        84.5046   55.5833   38.6496 dc         1 CLA      0.015600
    125 H61        84.9173   53.9643   39.1687 dc         1 CLA      0.015600
    126 H52        85.9751   53.6790   36.8979 dc         1 CLA      0.033200
    127 H51        85.0539   55.2202   36.3912 dc         1 CLA      0.033200
    128 H43        84.5049   51.6828   36.1500 dc         1 CLA      0.037000
    129 H42        84.3978   51.7744   37.9801 dc         1 CLA      0.037000
    130 H41        82.8549   51.6699   37.1029 dc         1 CLA      0.037000
    131 H3A        81.1778   59.1216   36.6193 dc         1 CLA      0.041100
    132 H2A        80.0697   56.4344   36.5540 dc         1 CLA      0.083100
    133 H2         82.1881   54.6011   37.3903 da         1 CLA      0.180900
    134 H18        86.6843   61.3217   46.1780 dc         1 CLA     -0.003900
    135 H13        89.2711   56.8878   44.6154 dc         1 CLA      0.019700
    136 H12        81.1514   53.9841   35.0347 dc         1 CLA      0.120400
    137 H11        82.8829   54.1279   34.2170 dc         1 CLA      0.120400
    138 C1         69.2639   60.7174   49.8425 Z1         2 LUT      0.509236
    139 C2         67.8874   60.6624   50.6078 Z2         2 LUT     -0.434695
    140 C3         67.2546   61.9930   51.1098 Z3         2 LUT      0.437453
    141 O3         67.7088   62.2919   52.4657 S1         2 LUT     -0.547129
    142 C4         67.6876   63.1173   50.1051 Z4         2 LUT     -0.468603
    143 C5         68.3180   62.8073   48.7995 Z5         2 LUT      0.279246
    144 C6         69.1004   61.7010   48.6604 Z6         2 LUT     -0.305473
    145 C7         69.4872   61.2520   47.2996 Z7         2 LUT      0.069402
    146 C8         70.4444   61.9325   46.5657 Z8         2 LUT     -0.191631
    147 C9         70.9917   61.5498   45.2403 Z9         2 LUT      0.196698
    148 C10        72.0789   62.2956   44.8420 Y1         2 LUT     -0.208611
    149 C11        72.8658   62.2215   43.6418 Y2         2 LUT      0.030784
    150 C12        74.1025   62.8992   43.5308 Y3         2 LUT     -0.220316
    151 C13        75.0246   63.0180   42.4185 Y4         2 LUT      0.215937
    152 C14        76.2830   63.6233   42.6134 Y5         2 LUT     -0.185793
    153 C15        77.3428   63.9085   41.6756 Y6         2 LUT     -0.057835
    154 C16        69.6472   59.3208   49.5198 Y7         2 LUT     -0.405615
    155 C17        70.3248   61.2734   50.8730 Y7         2 LUT     -0.405615
    156 C18        67.7204   63.6068   47.6466 Y9         2 LUT     -0.369639
    157 C19        70.2718   60.5048   44.4075 W1         2 LUT     -0.333362
    158 C20        74.6479   62.4682   41.1000 W2         2 LUT     -0.323439
    159 C21        88.6977   64.8988   35.6383 Z1         2 LUT      0.406104
    160 C22        89.2081   64.1308   34.4151 Z2         2 LUT     -0.404965
    161 C23        89.1020   64.9317   33.1127 Z3         2 LUT      0.391255
    162 O23        89.5169   63.9842   32.1475 S1         2 LUT     -0.528210
    163 C24        87.8709   65.8424   32.9642 W6         2 LUT     -0.258361
    164 C25        86.9604   66.0211   33.9536 Z5         2 LUT      0.133546
    165 C26        87.2092   65.4139   35.3540 W8         2 LUT     -0.147008
    166 C27        86.5303   66.0875   36.5398 Z7         2 LUT      0.023843
    167 C28        85.3083   65.7544   37.0146 Z8         2 LUT     -0.216987
    168 C29        84.6381   66.2086   38.1627 Z9         2 LUT      0.206524
    169 C30        83.4237   65.6815   38.5078 Y1         2 LUT     -0.215556
    170 C31        82.7226   65.8412   39.6714 Y2         2 LUT      0.025142
    171 C32        81.5347   65.3344   39.9140 Y3         2 LUT     -0.212209
    172 C33        80.7981   65.4471   41.1631 Y4         2 LUT      0.240937
    173 C34        79.5304   64.8017   41.0317 Y5         2 LUT     -0.218862
    174 C35        78.4396   64.7097   41.9104 Y6         2 LUT     -0.023547
    175 C36        89.6685   65.9986   36.0982 Y7         2 LUT     -0.393485
    176 C37        88.6904   63.7759   36.7627 Y7         2 LUT     -0.393485
    177 C38        85.7167   66.8416   33.6556 Y9         2 LUT     -0.387526
    178 C39        85.2947   67.1173   39.2468 W1         2 LUT     -0.322618
    179 C40        81.0999   66.6439   42.0796 W2         2 LUT     -0.358472
    180 H403       80.2593   66.8591   42.7576 R7         2 LUT      0.097720
    181 H402       82.0179   66.5647   42.6953 R7         2 LUT      0.097720
    182 H401       81.2757   67.5516   41.4861 R7         2 LUT      0.097720
    183 H393       86.3312   67.4371   39.0695 R4         2 LUT      0.082505
    184 H392       84.7715   67.9943   39.3635 R4         2 LUT      0.082505
    185 H391       85.2699   66.6281   40.1637 R4         2 LUT      0.082505
    186 H383       85.8771   67.8533   33.2655 R1         2 LUT      0.104030
    187 H382       84.9876   66.2111   33.0016 R1         2 LUT      0.104030
    188 H381       85.2254   66.9894   34.6139 R1         2 LUT      0.104030
    189 H373       89.6386   63.4526   37.1632 T4         2 LUT      0.089537
    190 H372       88.2341   64.2004   37.6267 T4         2 LUT      0.089537
    191 H371       88.1094   62.8765   36.5527 T4         2 LUT      0.089537
    192 H363       89.2453   66.4999   36.9817 T4         2 LUT      0.089537
    193 H362       90.4931   65.4337   36.4085 T4         2 LUT      0.089537
    194 H361       90.0426   66.7876   35.4290 T4         2 LUT      0.089537
    195 H222       90.2746   63.8666   34.5528 U2         2 LUT      0.127376
    196 H221       88.5796   63.2203   34.2812 U2         2 LUT      0.127376
    197 H203       75.4441   62.3913   40.4123 R7         2 LUT      0.087068
    198 H202       74.3717   61.4525   41.2854 R7         2 LUT      0.087068
    199 H201       73.8681   62.9405   40.5057 R7         2 LUT      0.087068
    200 H193       69.2614   60.8882   44.2094 R4         2 LUT      0.089716
    201 H192       70.7558   60.3406   43.4856 R4         2 LUT      0.089716
    202 H191       70.0968   59.5472   44.8578 R4         2 LUT      0.089716
    203 H183       67.8573   63.1553   46.6912 R1         2 LUT      0.094572
    204 H182       66.6427   63.6518   47.7842 R1         2 LUT      0.094572
    205 H181       68.0026   64.6818   47.7289 R1         2 LUT      0.094572
    206 H173       70.1988   62.3041   51.2872 T4         2 LUT      0.093752
    207 H172       70.3470   60.5912   51.7166 T4         2 LUT      0.093752
    208 H171       71.2890   61.2035   50.3891 T4         2 LUT      0.093752
    209 H163       70.7213   59.2437   49.1866 T4         2 LUT      0.093752
    210 H162       69.6420   58.5941   50.3666 T4         2 LUT      0.093752
    211 H161       69.0691   58.8388   48.7746 T4         2 LUT      0.093752
    212 HO3        67.1352   61.8755   53.1583 Q1         2 LUT      0.300121
    213 H8         70.8752   62.7888   47.0684 U7         2 LUT      0.080784
    214 H7         69.0133   60.3618   46.9046 U6         2 LUT      0.042190
    215 H42        66.8952   63.8149   50.1617 U5         2 LUT      0.145166
    216 H41        68.4989   63.7519   50.6101 U5         2 LUT      0.145166
    217 H35        78.5356   65.0895   42.9169 T3         2 LUT      0.077919
    218 H34        79.3477   64.3422   40.0530 T2         2 LUT      0.073626
    219 H32        81.0750   64.7831   39.1315 T1         2 LUT      0.092510
    220 H31        83.2700   66.3755   40.4831 U9         2 LUT      0.070048
    221 H30        83.0842   64.9098   37.8351 U8         2 LUT      0.085442
    222 H3         66.1142   61.9663   51.1038 U3         2 LUT     -0.031596
    223 H28        84.7837   65.0643   36.4778 U7         2 LUT      0.084728
    224 H27        87.1406   66.8907   36.9911 U6         2 LUT      0.087291
    225 H26        86.6118   64.4630   35.1267 Q6         2 LUT      0.075325
    226 H24        87.7996   66.3842   32.0198 Q5         2 LUT      0.094482
    227 H23        89.7918   65.7426   33.2388 U3         2 LUT     -0.024869
    228 H22        67.1096   60.1400   50.0007 U2         2 LUT      0.127376
    229 H21        67.9805   59.9229   51.4354 U2         2 LUT      0.127376
    230 H15        77.3978   63.2961   40.7869 T3         2 LUT      0.093200
    231 H14        76.3815   63.9654   43.6287 T2         2 LUT      0.068865
    232 H12        74.5021   63.3460   44.4313 T1         2 LUT      0.095507
    233 H11        72.4370   61.6512   42.7661 U9         2 LUT      0.068930
    234 H10        72.3319   63.0546   45.6345 U8         2 LUT      0.083911
    235 H1         89.7067   64.3963   31.3074 Q1         2 LUT      0.297311
@<TRIPOS>BOND
    1     6     1 1
    2     7     2 1
    3     8     3 1
    4     9     4 1
    5    11     4 1
    6    12     6 1
    7    13     9 1
    8    16     9 1
    9    25     5 1
   10    25    16 1
   11    26    10 1
   12    26    17 1
   13    27    18 1
   14    28    14 1
   15    28    19 1
   16    29    12 1
   17    30    13 1
   18    31    24 1
   19    32     1 1
   20    32    25 1
   21    33    21 1
   22    33    26 1
   23    34    22 1
   24    34    27 1
   25    35    23 1
   26    35    28 1
   27    36    12 1
   28    36    24 1
   29    37    13 1
   30    37    15 1
   31    38    31 1
   32    39    20 1
   33    39    32 1
   34    40     2 1
   35    40    33 1
   36    41     3 1
   37    41    34 1
   38    42     4 1
   39    42    35 1
   40    43    38 1
   41    44     5 1
   42    44    17 1
   43    44    39 1
   44    45    10 1
   45    45    18 1
   46    45    40 1
   47    46    19 1
   48    46    41 1
   49    47    14 1
   50    47    16 1
   51    47    42 1
   52    48    38 1
   53    49    48 1
   54    50    49 1
   55    51    50 1
   56    52    51 1
   57    53    51 1
   58    54    53 1
   59    55    54 1
   60    56    55 1
   61    57    56 1
   62    58    56 1
   63    59    58 1
   64    60    59 1
   65    61    60 1
   66    62    61 1
   67    63    61 1
   68    64    27 1
   69    64    46 1
   70    65     5 1
   71    65    10 1
   72    65    64 1
   73    65    14 1
   74    66    23 1
   75    67    23 1
   76    68    23 1
   77    69    22 1
   78    70    22 1
   79    71    22 1
   80    72    21 1
   81    73    21 1
   82    74    21 1
   83    75    20 1
   84    76    20 1
   85    77    20 1
   86    78    15 1
   87    79    15 1
   88    80    15 1
   89    81     8 1
   90    82     8 1
   91    83     8 1
   92    84     7 1
   93    85     7 1
   94    86     6 1
   95    87     6 1
   96    88     3 1
   97    89     3 1
   98    90     1 1
   99    91     1 1
  100    92    63 1
  101    93    63 1
  102    94    63 1
  103    95    62 1
  104    96    62 1
  105    97    62 1
  106    98    60 1
  107    99    60 1
  108   100    59 1
  109   101    59 1
  110   102    58 1
  111   103    58 1
  112   104    57 1
  113   105    57 1
  114   106    57 1
  115   107    55 1
  116   108    55 1
  117   109    54 1
  118   110    54 1
  119   111    53 1
  120   112    53 1
  121   113    19 1
  122   114    18 1
  123   115    17 1
  124   116     9 1
  125   117     2 1
  126   118    52 1
  127   119    52 1
  128   120    52 1
  129   121    51 1
  130   122    50 1
  131   123    50 1
  132   124    49 1
  133   125    49 1
  134   126    48 1
  135   127    48 1
  136   128    43 1
  137   129    43 1
  138   130    43 1
  139   131    39 1
  140   132    32 1
  141   133    31 1
  142   134    61 1
  143   135    56 1
  144   136    24 1
  145   137    24 1
  146   139   138 1
  147   140   139 1
  148   141   140 1
  149   142   140 1
  150   143   142 1
  151   144   138 1
  152   144   143 1
  153   145   144 1
  154   146   145 1
  155   147   146 1
  156   148   147 1
  157   149   148 1
  158   150   149 1
  159   151   150 1
  160   152   151 1
  161   153   152 1
  162   154   138 1
  163   155   138 1
  164   156   143 1
  165   157   147 1
  166   158   151 1
  167   160   159 1
  168   161   160 1
  169   162   161 1
  170   163   161 1
  171   164   163 1
  172   165   159 1
  173   165   164 1
  174   166   165 1
  175   167   166 1
  176   168   167 1
  177   169   168 1
  178   170   169 1
  179   171   170 1
  180   172   171 1
  181   173   172 1
  182   174   153 1
  183   174   173 1
  184   175   159 1
  185   176   159 1
  186   177   164 1
  187   178   168 1
  188   179   172 1
  189   180   179 1
  190   181   179 1
  191   182   179 1
  192   183   178 1
  193   184   178 1
  194   185   178 1
  195   186   177 1
  196   187   177 1
  197   188   177 1
  198   189   176 1
  199   190   176 1
  200   191   176 1
  201   192   175 1
  202   193   175 1
  203   194   175 1
  204   195   160 1
  205   196   160 1
  206   197   158 1
  207   198   158 1
  208   199   158 1
  209   200   157 1
  210   201   157 1
  211   202   157 1
  212   203   156 1
  213   204   156 1
  214   205   156 1
  215   206   155 1
  216   207   155 1
  217   208   155 1
  218   209   154 1
  219   210   154 1
  220   211   154 1
  221   212   141 1
  222   213   146 1
  223   214   145 1
  224   215   142 1
  225   216   142 1
  226   217   174 1
  227   218   173 1
  228   219   171 1
  229   220   170 1
  230   221   169 1
  231   222   140 1
  232   223   167 1
  233   224   166 1
  234   225   165 1
  235   226   163 1
  236   227   161 1
  237   228   139 1
  238   229   139 1
  239   230   153 1
  240   231   152 1
  241   232   150 1
  242   233   149 1
  243   234   148 1
  244   235   162 1
  245   65    153 1
  246   65    174 1
@<TRIPOS>SUBSTRUCTURE
      1 CLA               1 ****               0 ****  **** 
      2 LUT             138 ****               0 ****  **** 
