@<TRIPOS>MOLECULE
Cpptraj generated mol2 file.
  235   246     2     0     0
SMALL
USER_CHARGES


@<TRIPOS>ATOM
      1 CAA        78.0819   57.8352   33.8830 a2         1 CLA     -0.055900
      2 CAB        78.3059   61.5858   42.8139 c8         1 CLA     -0.148500
      3 CAC        71.4303   57.4675   42.5391 a2         1 CLA     -0.012600
      4 CAD        73.8467   55.1748   35.0933 ck         1 CLA      0.398800
      5 NA         77.2187   57.9343   37.3124 ns         1 CLA     -0.225500
      6 CBA        79.4118   57.7505   33.0045 a2         1 CLA     -0.135000
      7 CBB        79.4632   61.4850   43.5399 c0         1 CLA     -0.395200
      8 CBC        71.3999   55.9009   42.5752 a3         1 CLA     -0.037700
      9 CBD        75.3024   55.7439   34.7342 a1         1 CLA     -0.053900
     10 NB         77.1899   59.4964   39.9406 nm         1 CLA     -0.295700
     11 OBD        73.2318   54.3764   34.3857 o2         1 CLA     -0.494600
     12 CGA        79.7335   56.3046   32.5081 c4         1 CLA      0.827000
     13 CGD        76.2534   54.6394   34.2918 c4         1 CLA      0.655300
     14 ND         74.3743   57.1985   37.9807 nm         1 CLA     -0.291600
     15 CED        77.0372   52.4035   34.6161 a3         1 CLA      0.005400
     16 CHA        75.7571   56.5925   35.9527 cs         1 CLA     -0.123800
     17 CHB        79.0192   59.2314   38.3695 aa         1 CLA     -0.291900
     18 CHC        75.8412   59.8942   41.9580 aa         1 CLA     -0.090400
     19 CHD        72.6327   57.0001   39.7102 aa         1 CLA     -0.052000
     20 CMA        80.6873   57.3815   36.3877 a3         1 CLA     -0.230700
     21 CMB        80.5275   61.1067   40.4940 a3         1 CLA     -0.180800
     22 CMC        73.5351   59.4051   44.0726 a3         1 CLA     -0.134000
     23 CMD        71.3220   55.0776   37.4354 a3         1 CLA     -0.141100
     24 C1         80.3174   54.0957   33.1183 a2         1 CLA      0.023000
     25 C1A        76.9682   57.3154   36.1662 ac         1 CLA     -0.015100
     26 C1B        78.5122   59.7114   39.5450 cr         1 CLA      0.054700
     27 C1C        74.7649   59.0509   41.7900 cn         1 CLA     -0.005600
     28 C1D        73.1843   56.6734   38.4390 ap         1 CLA     -0.047300
     29 O1A        79.4527   55.9363   31.3807 o2         1 CLA     -0.610800
     30 O1D        77.0744   54.8002   33.4238 o2         1 CLA     -0.558200
     31 C2         80.7868   53.2658   34.2845 c8         1 CLA     -0.325100
     32 C2A        78.2928   57.2061   35.3007 a1         1 CLA      0.098600
     33 C2B        79.1505   60.5750   40.5666 cb         1 CLA      0.088500
     34 C2C        73.6762   58.8589   42.6874 cb         1 CLA      0.053700
     35 C2D        72.5684   55.8987   37.3810 cb         1 CLA      0.058900
     36 O2A        80.1853   55.5038   33.5274 o1         1 CLA     -0.437200
     37 O2D        76.0605   53.4879   35.0286 o1         1 CLA     -0.357600
     38 C3         81.5312   52.1942   34.2243 c5         1 CLA      0.031200
     39 C3A        79.2781   57.8836   36.1978 a1         1 CLA      0.166800
     40 C3B        78.1949   60.8113   41.5250 cb         1 CLA      0.035000
     41 C3C        72.7863   57.9721   42.0546 cb         1 CLA     -0.089900
     42 C3D        73.5447   55.7786   36.3588 cb         1 CLA     -0.035900
     43 C4         80.9383   50.7407   34.3787 a3         1 CLA     -0.053300
     44 C4A        78.4875   58.3413   37.3367 ac         1 CLA      0.001800
     45 C4B        77.0131   60.0785   41.1610 cn         1 CLA     -0.020900
     46 C4C        73.3053   57.7430   40.7084 cr         1 CLA     -0.044400
     47 C4D        74.6523   56.5943   36.8315 c6         1 CLA     -0.046000
     48 C5         83.0346   52.2513   34.0362 a2         1 CLA     -0.070400
     49 C6         83.7891   53.4944   34.6779 a2         1 CLA      0.043900
     50 C7         84.0766   53.4242   36.2327 a2         1 CLA     -0.150000
     51 C8         85.0441   54.5687   36.6993 a1         1 CLA      0.064200
     52 C9         86.4913   54.2240   36.3226 a3         1 CLA     -0.259300
     53 C10        84.9838   54.9052   38.2478 a2         1 CLA     -0.071900
     54 C11        83.5853   55.0897   38.8734 a2         1 CLA      0.014500
     55 C12        83.6707   55.6372   40.2947 a2         1 CLA     -0.112100
     56 C13        82.2881   55.9174   40.8864 a1         1 CLA      0.089200
     57 C14        81.4817   57.0342   40.3000 a3         1 CLA     -0.239100
     58 C15        82.3608   55.9126   42.4516 a2         1 CLA     -0.102200
     59 C16        83.0077   57.2126   42.9653 a2         1 CLA      0.023900
     60 C17        83.0021   57.2786   44.4745 a2         1 CLA     -0.105700
     61 C18        83.5471   58.5356   45.1539 a1         1 CLA      0.206800
     62 C19        85.0784   58.4947   44.9589 a3         1 CLA     -0.280100
     63 C20        82.8276   59.8195   44.6190 a3         1 CLA     -0.280100
     64 NC         74.5495   58.4219   40.5548 nx         1 CLA     -0.309200
     65 MG         75.7180   58.3859   38.9597 mg         1 CLA      0.895000
     66 HMD3       70.5399   55.8624   37.3917 dc         1 CLA      0.064300
     67 HMD2       71.1607   54.3935   36.6129 dc         1 CLA      0.064300
     68 HMD1       71.2017   54.6228   38.3712 dc         1 CLA      0.064300
     69 HMC3       74.5161   59.6151   44.4071 dc         1 CLA      0.052100
     70 HMC2       73.0827   60.3925   43.9705 dc         1 CLA      0.052100
     71 HMC1       73.1010   58.7647   44.8497 dc         1 CLA      0.052100
     72 HMB3       80.8134   61.4139   39.4911 dc         1 CLA      0.063600
     73 HMB2       80.7595   61.8892   41.2065 dc         1 CLA      0.063600
     74 HMB1       81.0934   60.2353   40.8385 dc         1 CLA      0.063600
     75 HMA3       81.3883   57.9292   37.0477 dc         1 CLA      0.058300
     76 HMA2       80.7080   56.3400   36.8127 dc         1 CLA      0.058300
     77 HMA1       81.0311   57.3472   35.3624 dc         1 CLA      0.058300
     78 HED3       76.9612   52.1732   33.5277 dc         1 CLA      0.079300
     79 HED2       78.0609   52.6176   34.8141 dc         1 CLA      0.079300
     80 HED1       76.7970   51.5725   35.2247 dc         1 CLA      0.079300
     81 HBC3       72.3505   55.5456   42.8457 dc         1 CLA      0.016300
     82 HBC2       70.6709   55.5007   43.2986 dc         1 CLA      0.016300
     83 HBC1       71.1219   55.4043   41.6567 dc         1 CLA      0.016300
     84 HBB2       79.6250   62.0812   44.4433 da         1 CLA      0.183000
     85 HBB1       80.2773   60.7999   43.3216 da         1 CLA      0.183000
     86 HBA2       79.1923   58.3671   32.1744 dc         1 CLA      0.029400
     87 HBA1       80.2901   58.1460   33.5002 dc         1 CLA      0.029400
     88 HAC2       71.2417   57.6475   43.6182 dc         1 CLA      0.029300
     89 HAC1       70.6805   57.9795   41.9039 dc         1 CLA      0.029300
     90 HAA2       77.2900   57.3700   33.3016 dc         1 CLA      0.028700
     91 HAA1       77.8169   58.8922   33.9617 dc         1 CLA      0.028700
     92 H203       83.1724   60.5646   45.3169 dc         1 CLA      0.065600
     93 H202       83.1813   60.1371   43.6335 dc         1 CLA      0.065600
     94 H201       81.7805   59.6041   44.4779 dc         1 CLA      0.065600
     95 H193       85.5886   59.2966   45.5317 dc         1 CLA      0.065600
     96 H192       85.3670   57.5613   45.3206 dc         1 CLA      0.065600
     97 H191       85.3989   58.5173   43.9684 dc         1 CLA      0.065600
     98 H172       81.9915   57.1841   44.7799 dc         1 CLA      0.027600
     99 H171       83.4460   56.4054   44.9739 dc         1 CLA      0.027600
    100 H162       84.0324   57.3207   42.5355 dc         1 CLA      0.002900
    101 H161       82.5508   58.1080   42.5823 dc         1 CLA      0.002900
    102 H152       81.3546   55.8303   42.7675 dc         1 CLA      0.029100
    103 H151       82.8365   54.9409   42.7983 dc         1 CLA      0.029100
    104 H143       82.1530   57.9198   40.3210 dc         1 CLA      0.063600
    105 H142       81.1236   56.8480   39.2847 dc         1 CLA      0.063600
    106 H141       80.6214   57.2828   40.9676 dc         1 CLA      0.063600
    107 H122       84.2295   54.9481   40.8612 dc         1 CLA      0.032500
    108 H121       84.1863   56.6031   40.3316 dc         1 CLA      0.032500
    109 H112       83.0959   55.7995   38.1956 dc         1 CLA      0.006600
    110 H111       83.0346   54.2245   38.9399 dc         1 CLA      0.006600
    111 H102       85.5220   54.0398   38.7739 dc         1 CLA      0.024100
    112 H101       85.5623   55.7773   38.2373 dc         1 CLA      0.024100
    113 HHD        71.6885   56.6719   40.0179 da         1 CLA      0.174300
    114 HHC        75.7918   60.5427   42.8455 da         1 CLA      0.136800
    115 HHB        79.9976   59.5341   37.9997 da         1 CLA      0.138300
    116 HBD        75.2166   56.5722   34.0138 dc         1 CLA      0.107700
    117 HAB        77.5489   62.3220   43.1221 da         1 CLA      0.155200
    118 H93        87.1512   55.0341   36.6702 dc         1 CLA      0.069500
    119 H92        86.7728   53.3223   36.8387 dc         1 CLA      0.069500
    120 H91        86.6884   54.2257   35.2662 dc         1 CLA      0.069500
    121 H8         84.8162   55.5588   36.2505 dc         1 CLA      0.029300
    122 H72        83.1233   53.4267   36.6664 dc         1 CLA      0.044400
    123 H71        84.6187   52.4959   36.6207 dc         1 CLA      0.044400
    124 H62        84.7383   53.5618   34.1586 dc         1 CLA      0.015600
    125 H61        83.2844   54.4247   34.3380 dc         1 CLA      0.015600
    126 H52        83.6048   51.3387   34.3513 dc         1 CLA      0.033200
    127 H51        83.2723   52.2670   33.0252 dc         1 CLA      0.033200
    128 H43        79.9270   50.7860   34.6546 dc         1 CLA      0.037000
    129 H42        81.0878   50.2703   33.4159 dc         1 CLA      0.037000
    130 H41        81.4961   50.2879   35.2576 dc         1 CLA      0.037000
    131 H3A        79.5125   58.8102   35.6299 dc         1 CLA      0.041100
    132 H2A        78.4556   56.0767   35.2301 dc         1 CLA      0.083100
    133 H2         80.5330   53.7955   35.2781 da         1 CLA      0.180900
    134 H18        83.4918   58.3594   46.2396 dc         1 CLA     -0.003900
    135 H13        81.7140   55.0548   40.6554 dc         1 CLA      0.019700
    136 H12        79.3296   53.8036   32.8905 dc         1 CLA      0.120400
    137 H11        80.8662   54.0660   32.1899 dc         1 CLA      0.120400
    138 C1         67.7420   61.4864   50.4984 Z1         2 LUT      0.509236
    139 C2         67.8361   62.8162   51.2785 Z2         2 LUT     -0.434695
    140 C3         66.5623   63.5882   51.2997 Z3         2 LUT      0.437453
    141 O3         67.0105   64.9709   51.6162 S1         2 LUT     -0.547129
    142 C4         65.8439   63.6482   49.8893 Z4         2 LUT     -0.468603
    143 C5         66.5785   62.9230   48.8150 Z5         2 LUT      0.279246
    144 C6         67.4352   61.9429   49.0273 Z6         2 LUT     -0.305473
    145 C7         68.3694   61.4283   47.9678 Z7         2 LUT      0.069402
    146 C8         69.3027   62.0576   47.2838 Z8         2 LUT     -0.191631
    147 C9         70.0019   61.6247   46.0451 Z9         2 LUT      0.196698
    148 C10        70.8730   62.5276   45.5012 Y1         2 LUT     -0.208611
    149 C11        71.4316   62.5745   44.2156 Y2         2 LUT      0.030784
    150 C12        72.5104   63.2829   43.7635 Y3         2 LUT     -0.220316
    151 C13        73.1515   63.2410   42.4247 Y4         2 LUT      0.215937
    152 C14        74.2800   63.9558   42.1932 Y5         2 LUT     -0.185793
    153 C15        75.2079   63.8674   41.1367 Y6         2 LUT     -0.057835
    154 C16        66.5662   60.6473   51.0426 Y7         2 LUT     -0.405615
    155 C17        69.0381   60.6598   50.7611 Y7         2 LUT     -0.405615
    156 C18        66.3759   63.5442   47.4545 Y9         2 LUT     -0.369639
    157 C19        69.5929   60.3497   45.3334 W1         2 LUT     -0.333362
    158 C20        72.7450   62.1428   41.4337 W2         2 LUT     -0.323439
    159 C21        86.6348   64.8922   34.4767 Z1         2 LUT      0.406104
    160 C22        87.4324   64.5130   33.1586 Z2         2 LUT     -0.404965
    161 C23        87.5903   65.7197   32.2160 Z3         2 LUT      0.391255
    162 O23        88.1064   65.3303   30.9279 S1         2 LUT     -0.528210
    163 C24        86.2747   66.4264   32.0578 W6         2 LUT     -0.258361
    164 C25        85.1786   66.2411   32.7920 Z5         2 LUT      0.133546
    165 C26        85.1852   65.2787   33.9664 W8         2 LUT     -0.147008
    166 C27        84.3353   65.7508   35.1208 Z7         2 LUT      0.023843
    167 C28        83.6183   64.9589   35.9962 Z8         2 LUT     -0.216987
    168 C29        82.7801   65.3059   37.2461 Z9         2 LUT      0.206524
    169 C30        81.6470   64.5335   37.5848 Y1         2 LUT     -0.215556
    170 C31        80.8087   64.8357   38.6309 Y2         2 LUT      0.025142
    171 C32        79.6476   64.2819   39.0618 Y3         2 LUT     -0.212209
    172 C33        78.7506   64.7020   40.0876 Y4         2 LUT      0.240937
    173 C34        77.4832   64.1634   40.2067 Y5         2 LUT     -0.218862
    174 C35        76.4425   64.4211   41.1832 Y6         2 LUT     -0.023547
    175 C36        87.4274   66.0320   35.1741 Y7         2 LUT     -0.393485
    176 C37        86.6792   63.6477   35.3423 Y7         2 LUT     -0.393485
    177 C38        83.8781   66.8565   32.3776 Y9         2 LUT     -0.387526
    178 C39        83.3278   66.4402   38.1103 W1         2 LUT     -0.322618
    179 C40        79.3334   65.6875   41.0944 W2         2 LUT     -0.358472
    180 H403       78.8703   65.6654   42.0854 R7         2 LUT      0.097720
    181 H402       80.3953   65.6005   41.2105 R7         2 LUT      0.097720
    182 H401       79.1380   66.6519   40.7380 R7         2 LUT      0.097720
    183 H393       83.7796   66.1029   38.9872 R4         2 LUT      0.082505
    184 H392       83.9614   67.1284   37.6186 R4         2 LUT      0.082505
    185 H391       82.4472   67.0711   38.4207 R4         2 LUT      0.082505
    186 H383       83.1424   66.0889   31.9882 R1         2 LUT      0.104030
    187 H382       83.2856   67.3401   33.1053 R1         2 LUT      0.104030
    188 H381       84.0020   67.5507   31.5323 R1         2 LUT      0.104030
    189 H373       87.6702   63.1634   35.3155 T4         2 LUT      0.089537
    190 H372       86.4098   63.9033   36.3458 T4         2 LUT      0.089537
    191 H371       85.9645   62.9283   34.9776 T4         2 LUT      0.089537
    192 H363       87.2992   66.9489   34.5256 T4         2 LUT      0.089537
    193 H362       87.1017   66.2851   36.1996 T4         2 LUT      0.089537
    194 H361       88.5323   65.8008   35.1809 T4         2 LUT      0.089537
    195 H222       88.4853   64.3460   33.4230 U2         2 LUT      0.127376
    196 H221       86.8890   63.7209   32.6448 U2         2 LUT      0.127376
    197 H203       72.2290   62.4947   40.5334 R7         2 LUT      0.087068
    198 H202       73.5710   61.5716   40.9203 R7         2 LUT      0.087068
    199 H201       72.0917   61.3476   41.8444 R7         2 LUT      0.087068
    200 H193       68.9379   60.4900   44.4758 R4         2 LUT      0.089716
    201 H192       70.4899   59.8339   44.9529 R4         2 LUT      0.089716
    202 H191       68.9406   59.6713   45.9285 R4         2 LUT      0.089716
    203 H183       67.0568   64.3681   47.2752 R1         2 LUT      0.094572
    204 H182       66.4842   62.7544   46.6933 R1         2 LUT      0.094572
    205 H181       65.3242   64.0263   47.3960 R1         2 LUT      0.094572
    206 H173       69.0648   60.4031   51.7661 T4         2 LUT      0.093752
    207 H172       69.2338   59.8389   50.1028 T4         2 LUT      0.093752
    208 H171       69.9818   61.3251   50.6337 T4         2 LUT      0.093752
    209 H163       65.5917   61.0269   50.7795 T4         2 LUT      0.093752
    210 H162       66.6559   59.6225   50.7061 T4         2 LUT      0.093752
    211 H161       66.5545   60.6071   52.0856 T4         2 LUT      0.093752
    212 HO3        66.3510   65.4903   52.1186 Q1         2 LUT      0.300121
    213 H8         69.5026   63.0789   47.5265 U7         2 LUT      0.080784
    214 H7         68.0616   60.4268   47.6599 U6         2 LUT      0.042190
    215 H42        64.8421   63.2552   50.0468 U5         2 LUT      0.145166
    216 H41        65.6478   64.6834   49.5410 U5         2 LUT      0.145166
    217 H35        76.7772   64.9356   42.0837 T3         2 LUT      0.077919
    218 H34        77.2387   63.4246   39.4518 T2         2 LUT      0.073626
    219 H32        79.2545   63.5176   38.4312 T1         2 LUT      0.092510
    220 H31        81.1574   65.7114   39.1913 U9         2 LUT      0.070048
    221 H30        81.3281   63.7684   36.8236 U8         2 LUT      0.085442
    222 H3         65.9436   63.1588   52.1235 U3         2 LUT     -0.031596
    223 H28        83.5661   63.9210   35.7577 U7         2 LUT      0.084728
    224 H27        84.5463   66.7810   35.2875 U6         2 LUT      0.087291
    225 H26        84.9299   64.3403   33.4777 Q6         2 LUT      0.075325
    226 H24        86.1409   67.0573   31.1552 Q5         2 LUT      0.094482
    227 H23        88.2663   66.3819   32.7337 U3         2 LUT     -0.024869
    228 H22        68.2512   62.4504   52.2613 U2         2 LUT      0.127376
    229 H21        68.7514   63.3117   50.8189 U2         2 LUT      0.127376
    230 H15        74.9334   63.3486   40.2173 T3         2 LUT      0.093200
    231 H14        74.5114   64.7764   42.9360 T2         2 LUT      0.068865
    232 H12        73.1323   63.9078   44.4848 T1         2 LUT      0.095507
    233 H11        70.9057   61.9489   43.5437 U9         2 LUT      0.068930
    234 H10        71.1550   63.2958   46.2576 U8         2 LUT      0.083911
    235 H1         87.4800   64.7935   30.4205 Q1         2 LUT      0.297311
@<TRIPOS>BOND
    1     6     1 1
    2     7     2 1
    3     8     3 1
    4     9     4 1
    5    11     4 1
    6    12     6 1
    7    13     9 1
    8    16     9 1
    9    25     5 1
   10    25    16 1
   11    26    10 1
   12    26    17 1
   13    27    18 1
   14    28    14 1
   15    28    19 1
   16    29    12 1
   17    30    13 1
   18    31    24 1
   19    32     1 1
   20    32    25 1
   21    33    21 1
   22    33    26 1
   23    34    22 1
   24    34    27 1
   25    35    23 1
   26    35    28 1
   27    36    12 1
   28    36    24 1
   29    37    13 1
   30    37    15 1
   31    38    31 1
   32    39    20 1
   33    39    32 1
   34    40     2 1
   35    40    33 1
   36    41     3 1
   37    41    34 1
   38    42     4 1
   39    42    35 1
   40    43    38 1
   41    44     5 1
   42    44    17 1
   43    44    39 1
   44    45    10 1
   45    45    18 1
   46    45    40 1
   47    46    19 1
   48    46    41 1
   49    47    14 1
   50    47    16 1
   51    47    42 1
   52    48    38 1
   53    49    48 1
   54    50    49 1
   55    51    50 1
   56    52    51 1
   57    53    51 1
   58    54    53 1
   59    55    54 1
   60    56    55 1
   61    57    56 1
   62    58    56 1
   63    59    58 1
   64    60    59 1
   65    61    60 1
   66    62    61 1
   67    63    61 1
   68    64    27 1
   69    64    46 1
   70    65     5 1
   71    65    10 1
   72    65    64 1
   73    65    14 1
   74    66    23 1
   75    67    23 1
   76    68    23 1
   77    69    22 1
   78    70    22 1
   79    71    22 1
   80    72    21 1
   81    73    21 1
   82    74    21 1
   83    75    20 1
   84    76    20 1
   85    77    20 1
   86    78    15 1
   87    79    15 1
   88    80    15 1
   89    81     8 1
   90    82     8 1
   91    83     8 1
   92    84     7 1
   93    85     7 1
   94    86     6 1
   95    87     6 1
   96    88     3 1
   97    89     3 1
   98    90     1 1
   99    91     1 1
  100    92    63 1
  101    93    63 1
  102    94    63 1
  103    95    62 1
  104    96    62 1
  105    97    62 1
  106    98    60 1
  107    99    60 1
  108   100    59 1
  109   101    59 1
  110   102    58 1
  111   103    58 1
  112   104    57 1
  113   105    57 1
  114   106    57 1
  115   107    55 1
  116   108    55 1
  117   109    54 1
  118   110    54 1
  119   111    53 1
  120   112    53 1
  121   113    19 1
  122   114    18 1
  123   115    17 1
  124   116     9 1
  125   117     2 1
  126   118    52 1
  127   119    52 1
  128   120    52 1
  129   121    51 1
  130   122    50 1
  131   123    50 1
  132   124    49 1
  133   125    49 1
  134   126    48 1
  135   127    48 1
  136   128    43 1
  137   129    43 1
  138   130    43 1
  139   131    39 1
  140   132    32 1
  141   133    31 1
  142   134    61 1
  143   135    56 1
  144   136    24 1
  145   137    24 1
  146   139   138 1
  147   140   139 1
  148   141   140 1
  149   142   140 1
  150   143   142 1
  151   144   138 1
  152   144   143 1
  153   145   144 1
  154   146   145 1
  155   147   146 1
  156   148   147 1
  157   149   148 1
  158   150   149 1
  159   151   150 1
  160   152   151 1
  161   153   152 1
  162   154   138 1
  163   155   138 1
  164   156   143 1
  165   157   147 1
  166   158   151 1
  167   160   159 1
  168   161   160 1
  169   162   161 1
  170   163   161 1
  171   164   163 1
  172   165   159 1
  173   165   164 1
  174   166   165 1
  175   167   166 1
  176   168   167 1
  177   169   168 1
  178   170   169 1
  179   171   170 1
  180   172   171 1
  181   173   172 1
  182   174   153 1
  183   174   173 1
  184   175   159 1
  185   176   159 1
  186   177   164 1
  187   178   168 1
  188   179   172 1
  189   180   179 1
  190   181   179 1
  191   182   179 1
  192   183   178 1
  193   184   178 1
  194   185   178 1
  195   186   177 1
  196   187   177 1
  197   188   177 1
  198   189   176 1
  199   190   176 1
  200   191   176 1
  201   192   175 1
  202   193   175 1
  203   194   175 1
  204   195   160 1
  205   196   160 1
  206   197   158 1
  207   198   158 1
  208   199   158 1
  209   200   157 1
  210   201   157 1
  211   202   157 1
  212   203   156 1
  213   204   156 1
  214   205   156 1
  215   206   155 1
  216   207   155 1
  217   208   155 1
  218   209   154 1
  219   210   154 1
  220   211   154 1
  221   212   141 1
  222   213   146 1
  223   214   145 1
  224   215   142 1
  225   216   142 1
  226   217   174 1
  227   218   173 1
  228   219   171 1
  229   220   170 1
  230   221   169 1
  231   222   140 1
  232   223   167 1
  233   224   166 1
  234   225   165 1
  235   226   163 1
  236   227   161 1
  237   228   139 1
  238   229   139 1
  239   230   153 1
  240   231   152 1
  241   232   150 1
  242   233   149 1
  243   234   148 1
  244   235   162 1
  245   65    153 1
  246   65    174 1
@<TRIPOS>SUBSTRUCTURE
      1 CLA               1 ****               0 ****  **** 
      2 LUT             138 ****               0 ****  **** 
