@<TRIPOS>MOLECULE
Cpptraj generated mol2 file.
  235   246     2     0     0
SMALL
USER_CHARGES


@<TRIPOS>ATOM
      1 CAA        79.8736   57.9638   34.8478 a2         1 CLA     -0.055900
      2 CAB        80.1721   62.0475   43.6732 c8         1 CLA     -0.148500
      3 CAC        72.8402   58.5020   43.1887 a2         1 CLA     -0.012600
      4 CAD        75.6669   55.2278   36.3401 ck         1 CLA      0.398800
      5 NA         78.8722   58.4982   38.1543 ns         1 CLA     -0.225500
      6 CBA        81.1382   57.8530   33.9352 a2         1 CLA     -0.135000
      7 CBB        81.4303   62.2940   44.2122 c0         1 CLA     -0.395200
      8 CBC        72.9170   56.9803   43.3428 a3         1 CLA     -0.037700
      9 CBD        77.1839   55.7700   35.9476 a1         1 CLA     -0.053900
     10 NB         78.8465   60.2148   40.6962 nm         1 CLA     -0.295700
     11 OBD        75.0817   54.3628   35.6933 o2         1 CLA     -0.494600
     12 CGA        81.6133   56.4282   33.5653 c4         1 CLA      0.827000
     13 CGD        78.2334   54.5871   35.9154 c4         1 CLA      0.655300
     14 ND         75.9959   57.6859   38.8433 nm         1 CLA     -0.291600
     15 CED        79.0168   52.6066   36.8430 a3         1 CLA      0.005400
     16 CHA        77.5268   56.8431   36.9727 cs         1 CLA     -0.123800
     17 CHB        80.6786   59.8838   39.1705 aa         1 CLA     -0.291900
     18 CHC        77.4557   60.6412   42.6408 aa         1 CLA     -0.090400
     19 CHD        74.1417   57.7520   40.4343 aa         1 CLA     -0.052000
     20 CMA        82.3919   57.8088   37.5903 a3         1 CLA     -0.230700
     21 CMB        82.0375   61.8706   41.0309 a3         1 CLA     -0.180800
     22 CMC        75.1911   60.4256   44.7186 a3         1 CLA     -0.134000
     23 CMD        72.9827   55.3814   38.4554 a3         1 CLA     -0.141100
     24 C1         82.3858   54.3427   34.5450 a2         1 CLA      0.023000
     25 C1A        78.7289   57.6076   37.1210 ac         1 CLA     -0.015100
     26 C1B        80.0905   60.3869   40.3390 cr         1 CLA      0.054700
     27 C1C        76.2586   59.9570   42.3818 cn         1 CLA     -0.005600
     28 C1D        74.7183   57.2118   39.2547 ap         1 CLA     -0.047300
     29 O1A        81.2012   55.8111   32.6028 o2         1 CLA     -0.610800
     30 O1D        79.0987   54.4730   35.0699 o2         1 CLA     -0.558200
     31 C2         83.0614   53.7573   35.8350 c8         1 CLA     -0.325100
     32 C2A        80.0686   57.5597   36.2999 a1         1 CLA      0.098600
     33 C2B        80.7251   61.3304   41.2600 cb         1 CLA      0.088500
     34 C2C        75.1276   59.8842   43.3235 cb         1 CLA      0.053700
     35 C2D        74.2346   56.1742   38.3673 cb         1 CLA      0.058900
     36 O2A        82.3400   55.8117   34.5418 o1         1 CLA     -0.437200
     37 O2D        78.0865   53.7249   36.9320 o1         1 CLA     -0.357600
     38 C3         84.4319   53.6055   35.9947 c5         1 CLA      0.031200
     39 C3A        81.0167   58.4984   37.1150 a1         1 CLA      0.166800
     40 C3B        79.9179   61.3977   42.3339 cb         1 CLA      0.035000
     41 C3C        74.1751   59.1064   42.6572 cb         1 CLA     -0.089900
     42 C3D        75.2620   56.0437   37.4330 cb         1 CLA     -0.035900
     43 C4         85.1469   52.4190   35.5805 a3         1 CLA     -0.053300
     44 C4A        80.1246   59.0434   38.1913 ac         1 CLA      0.001800
     45 C4B        78.6811   60.7706   41.8822 cn         1 CLA     -0.020900
     46 C4C        74.7142   58.6848   41.3345 cr         1 CLA     -0.044400
     47 C4D        76.3266   56.9380   37.7867 c6         1 CLA     -0.046000
     48 C5         85.2035   54.8462   36.3542 a2         1 CLA     -0.070400
     49 C6         85.8653   54.9938   37.7755 a2         1 CLA      0.043900
     50 C7         86.7100   56.2588   37.7223 a2         1 CLA     -0.150000
     51 C8         87.7302   56.5404   38.8694 a1         1 CLA      0.064200
     52 C9         88.9198   55.4463   38.8864 a3         1 CLA     -0.259300
     53 C10        87.1169   56.6442   40.2805 a2         1 CLA     -0.071900
     54 C11        88.0994   57.2443   41.3049 a2         1 CLA      0.014500
     55 C12        87.4200   57.7421   42.6528 a2         1 CLA     -0.112100
     56 C13        88.4064   58.5948   43.5000 a1         1 CLA      0.089200
     57 C14        89.7114   57.8879   43.9541 a3         1 CLA     -0.239100
     58 C15        87.6252   59.0810   44.7276 a2         1 CLA     -0.102200
     59 C16        88.3021   60.3260   45.4114 a2         1 CLA      0.023900
     60 C17        87.4545   60.8877   46.5638 a2         1 CLA     -0.105700
     61 C18        87.0369   59.9163   47.7578 a1         1 CLA      0.206800
     62 C19        88.1054   58.8917   48.3452 a3         1 CLA     -0.280100
     63 C20        86.2807   60.6508   48.8700 a3         1 CLA     -0.280100
     64 NC         75.9361   59.2932   41.2241 nx         1 CLA     -0.309200
     65 MG         77.3578   59.0520   39.6621 mg         1 CLA      0.895000
     66 HMD3       72.1718   55.8758   37.9279 dc         1 CLA      0.064300
     67 HMD2       73.1040   54.4350   37.9206 dc         1 CLA      0.064300
     68 HMD1       72.6907   55.3166   39.4587 dc         1 CLA      0.064300
     69 HMC3       76.0603   60.0552   45.2300 dc         1 CLA      0.052100
     70 HMC2       75.1934   61.4538   44.7406 dc         1 CLA      0.052100
     71 HMC1       74.3202   60.0466   45.2358 dc         1 CLA      0.052100
     72 HMB3       82.1825   62.7192   41.6155 dc         1 CLA      0.063600
     73 HMB2       82.9363   61.1492   41.2222 dc         1 CLA      0.063600
     74 HMB1       82.1606   62.1961   40.0253 dc         1 CLA      0.063600
     75 HMA3       82.0583   56.8787   38.0438 dc         1 CLA      0.058300
     76 HMA2       82.9417   57.6848   36.6960 dc         1 CLA      0.058300
     77 HMA1       83.0125   58.3921   38.2340 dc         1 CLA      0.058300
     78 HED3       80.0448   52.9720   36.9866 dc         1 CLA      0.079300
     79 HED2       78.7874   51.8890   37.6548 dc         1 CLA      0.079300
     80 HED1       78.9888   52.1133   35.8126 dc         1 CLA      0.079300
     81 HBC3       73.9336   56.6875   43.5528 dc         1 CLA      0.016300
     82 HBC2       72.2327   56.5760   44.1158 dc         1 CLA      0.016300
     83 HBC1       72.5870   56.6383   42.4536 dc         1 CLA      0.016300
     84 HBB2       81.6019   62.8907   45.1504 da         1 CLA      0.183000
     85 HBB1       82.2769   62.0773   43.6582 da         1 CLA      0.183000
     86 HBA2       80.8442   58.4437   33.0104 dc         1 CLA      0.029400
     87 HBA1       82.0183   58.3597   34.4446 dc         1 CLA      0.029400
     88 HAC2       72.6640   58.8527   44.1727 dc         1 CLA      0.029300
     89 HAC1       72.0385   58.7556   42.5391 dc         1 CLA      0.029300
     90 HAA2       79.1649   57.2318   34.5072 dc         1 CLA      0.028700
     91 HAA1       79.4929   58.9685   34.8618 dc         1 CLA      0.028700
     92 H203       87.0142   61.0280   49.6072 dc         1 CLA      0.065600
     93 H202       85.6059   61.4608   48.5116 dc         1 CLA      0.065600
     94 H201       85.6679   59.9525   49.3403 dc         1 CLA      0.065600
     95 H193       89.0521   59.4015   48.6271 dc         1 CLA      0.065600
     96 H192       87.5808   58.6086   49.2203 dc         1 CLA      0.065600
     97 H191       88.3795   58.0722   47.6513 dc         1 CLA      0.065600
     98 H172       87.8896   61.7336   46.9911 dc         1 CLA      0.027600
     99 H171       86.5546   61.1579   46.0283 dc         1 CLA      0.027600
    100 H162       89.2705   60.0119   45.7423 dc         1 CLA      0.002900
    101 H161       88.6024   61.1505   44.8354 dc         1 CLA      0.002900
    102 H152       86.6643   59.4251   44.4491 dc         1 CLA      0.029100
    103 H151       87.4017   58.2281   45.3631 dc         1 CLA      0.029100
    104 H143       90.2864   57.4953   43.1356 dc         1 CLA      0.063600
    105 H142       90.3498   58.5287   44.6188 dc         1 CLA      0.063600
    106 H141       89.3735   57.0935   44.5508 dc         1 CLA      0.063600
    107 H122       86.7580   58.5939   42.4324 dc         1 CLA      0.032500
    108 H121       86.9352   56.8909   43.1833 dc         1 CLA      0.032500
    109 H112       88.8613   56.5151   41.5029 dc         1 CLA      0.006600
    110 H111       88.5634   58.1652   40.8274 dc         1 CLA      0.006600
    111 H102       86.3695   57.4056   40.2379 dc         1 CLA      0.024100
    112 H101       86.5348   55.8438   40.7418 dc         1 CLA      0.024100
    113 HHD        73.1519   57.4592   40.7428 da         1 CLA      0.174300
    114 HHC        77.5509   61.1407   43.5949 da         1 CLA      0.136800
    115 HHB        81.7672   60.0424   39.0845 da         1 CLA      0.138300
    116 HBD        77.3099   56.2279   34.9051 dc         1 CLA      0.107700
    117 HAB        79.2278   62.3190   44.2549 da         1 CLA      0.155200
    118 H93        89.7557   55.8883   39.5189 dc         1 CLA      0.069500
    119 H92        88.6323   54.4997   39.3573 dc         1 CLA      0.069500
    120 H91        89.2172   55.1926   37.8698 dc         1 CLA      0.069500
    121 H8         88.2335   57.5709   38.5919 dc         1 CLA      0.029300
    122 H72        87.4458   56.1850   36.8908 dc         1 CLA      0.044400
    123 H71        86.0131   57.1271   37.5494 dc         1 CLA      0.044400
    124 H62        85.0308   55.1435   38.4773 dc         1 CLA      0.015600
    125 H61        86.6086   54.1744   38.1006 dc         1 CLA      0.015600
    126 H52        85.8944   55.0960   35.5802 dc         1 CLA      0.033200
    127 H51        84.4963   55.6478   36.2245 dc         1 CLA      0.033200
    128 H43        84.4064   51.7456   35.1688 dc         1 CLA      0.037000
    129 H42        85.8682   52.6591   34.8279 dc         1 CLA      0.037000
    130 H41        85.7177   51.9512   36.4351 dc         1 CLA      0.037000
    131 H3A        81.3389   59.3626   36.5581 dc         1 CLA      0.041100
    132 H2A        80.3820   56.5691   36.2854 dc         1 CLA      0.083100
    133 H2         82.3475   53.5048   36.6327 da         1 CLA      0.180900
    134 H18        86.2234   59.3352   47.2753 dc         1 CLA     -0.003900
    135 H13        88.5480   59.5383   42.9649 dc         1 CLA      0.019700
    136 H12        81.4056   53.8629   34.4728 dc         1 CLA      0.120400
    137 H11        82.9191   54.0174   33.6117 dc         1 CLA      0.120400
    138 C1         70.2159   62.4810   50.1645 Z1         2 LUT      0.509236
    139 C2         68.9809   62.0841   51.0318 Z2         2 LUT     -0.434695
    140 C3         67.9578   63.1056   51.2864 Z3         2 LUT      0.437453
    141 O3         68.1117   63.6722   52.5783 S1         2 LUT     -0.547129
    142 C4         67.8580   64.2683   50.2593 Z4         2 LUT     -0.468603
    143 C5         68.4859   63.8954   48.9370 Z5         2 LUT      0.279246
    144 C6         69.5473   63.0290   48.8368 Z6         2 LUT     -0.305473
    145 C7         70.0690   62.5398   47.5768 Z7         2 LUT      0.069402
    146 C8         71.2296   62.8337   46.9497 Z8         2 LUT     -0.191631
    147 C9         71.6065   62.5019   45.6466 Z9         2 LUT      0.196698
    148 C10        72.6751   63.2817   45.1216 Y1         2 LUT     -0.208611
    149 C11        73.3529   63.1793   43.8843 Y2         2 LUT      0.030784
    150 C12        74.5029   63.7797   43.7030 Y3         2 LUT     -0.220316
    151 C13        75.3847   63.6734   42.4414 Y4         2 LUT      0.215937
    152 C14        76.6524   64.2611   42.4234 Y5         2 LUT     -0.185793
    153 C15        77.7217   64.0655   41.4280 Y6         2 LUT     -0.057835
    154 C16        71.1731   61.2780   49.9076 Y7         2 LUT     -0.405615
    155 C17        71.1642   63.4827   50.9361 Y7         2 LUT     -0.405615
    156 C18        67.7699   64.6327   47.8107 Y9         2 LUT     -0.369639
    157 C19        70.9340   61.5214   44.7350 W1         2 LUT     -0.333362
    158 C20        74.7608   63.0136   41.2481 W2         2 LUT     -0.323439
    159 C21        88.9472   65.2210   35.0894 Z1         2 LUT      0.406104
    160 C22        89.7255   64.5873   33.9874 Z2         2 LUT     -0.404965
    161 C23        89.8852   65.4850   32.6925 Z3         2 LUT      0.391255
    162 O23        90.4719   64.6165   31.7785 S1         2 LUT     -0.528210
    163 C24        88.6573   66.3435   32.4342 W6         2 LUT     -0.258361
    164 C25        87.6073   66.4707   33.1946 Z5         2 LUT      0.133546
    165 C26        87.5685   65.6643   34.5398 W8         2 LUT     -0.147008
    166 C27        86.6758   66.3948   35.5490 Z7         2 LUT      0.023843
    167 C28        85.7422   65.7650   36.2792 Z8         2 LUT     -0.216987
    168 C29        85.1294   66.1451   37.5145 Z9         2 LUT      0.206524
    169 C30        84.2029   65.3440   38.1663 Y1         2 LUT     -0.215556
    170 C31        83.4220   65.6529   39.3930 Y2         2 LUT      0.025142
    171 C32        82.1889   65.1142   39.6985 Y3         2 LUT     -0.212209
    172 C33        81.2647   65.3110   40.7832 Y4         2 LUT      0.240937
    173 C34        80.0588   64.6146   40.6463 Y5         2 LUT     -0.218862
    174 C35        78.9474   64.6589   41.6001 Y6         2 LUT     -0.023547
    175 C36        89.7374   66.3316   35.8301 Y7         2 LUT     -0.393485
    176 C37        88.8489   64.1231   36.2271 Y7         2 LUT     -0.393485
    177 C38        86.4150   67.3037   32.7861 Y9         2 LUT     -0.387526
    178 C39        85.4168   67.5105   38.1158 W1         2 LUT     -0.322618
    179 C40        81.6193   66.2190   41.8735 W2         2 LUT     -0.358472
    180 H403       81.2044   67.2357   41.5959 R7         2 LUT      0.097720
    181 H402       81.1877   65.9751   42.7856 R7         2 LUT      0.097720
    182 H401       82.6816   66.3628   42.0408 R7         2 LUT      0.097720
    183 H393       85.6950   67.5212   39.1637 R4         2 LUT      0.082505
    184 H392       86.3077   67.9358   37.6742 R4         2 LUT      0.082505
    185 H391       84.6542   68.2823   37.9941 R4         2 LUT      0.082505
    186 H383       85.6248   66.5984   32.4781 R1         2 LUT      0.104030
    187 H382       86.3091   68.0099   33.6029 R1         2 LUT      0.104030
    188 H381       86.8168   67.7981   31.8687 R1         2 LUT      0.104030
    189 H373       88.5270   64.5259   37.1884 T4         2 LUT      0.089537
    190 H372       88.1506   63.3038   35.9326 T4         2 LUT      0.089537
    191 H371       89.7172   63.5960   36.6085 T4         2 LUT      0.089537
    192 H363       89.1456   66.7692   36.5804 T4         2 LUT      0.089537
    193 H362       90.6355   65.9630   36.3421 T4         2 LUT      0.089537
    194 H361       90.0210   67.0826   35.0803 T4         2 LUT      0.089537
    195 H222       90.7312   64.2312   34.2126 U2         2 LUT      0.127376
    196 H221       89.2241   63.5819   33.6564 U2         2 LUT      0.127376
    197 H203       75.4608   62.8157   40.4646 R7         2 LUT      0.087068
    198 H202       74.4753   61.9980   41.5524 R7         2 LUT      0.087068
    199 H201       73.9250   63.6236   40.8195 R7         2 LUT      0.087068
    200 H193       71.5725   60.6774   44.5135 R4         2 LUT      0.089716
    201 H192       69.8792   61.1892   45.0203 R4         2 LUT      0.089716
    202 H191       70.8322   62.0325   43.7860 R4         2 LUT      0.089716
    203 H183       68.1633   64.3415   46.8420 R1         2 LUT      0.094572
    204 H182       66.6778   64.3773   47.7771 R1         2 LUT      0.094572
    205 H181       67.8167   65.7542   47.9178 R1         2 LUT      0.094572
    206 H173       72.0626   63.6520   50.3352 T4         2 LUT      0.093752
    207 H172       70.7471   64.4760   50.9406 T4         2 LUT      0.093752
    208 H171       71.3693   63.1132   51.9307 T4         2 LUT      0.093752
    209 H163       72.0635   61.5912   49.3701 T4         2 LUT      0.093752
    210 H162       71.5916   60.8840   50.8442 T4         2 LUT      0.093752
    211 H161       70.7309   60.4317   49.3737 T4         2 LUT      0.093752
    212 HO3        67.5978   63.1194   53.2252 Q1         2 LUT      0.300121
    213 H8         71.8357   63.5035   47.4646 U7         2 LUT      0.080784
    214 H7         69.3338   62.0122   47.0251 U6         2 LUT      0.042190
    215 H42        66.7210   64.3715   50.0944 U5         2 LUT      0.145166
    216 H41        68.4553   65.0454   50.7792 U5         2 LUT      0.145166
    217 H35        79.0989   65.1054   42.5428 T3         2 LUT      0.077919
    218 H34        79.8376   63.9206   39.7893 T2         2 LUT      0.073626
    219 H32        81.9825   64.3421   38.9863 T1         2 LUT      0.092510
    220 H31        83.7814   66.4973   40.0771 U9         2 LUT      0.070048
    221 H30        83.9948   64.3939   37.6245 U8         2 LUT      0.085442
    222 H3         66.9512   62.6780   51.1463 U3         2 LUT     -0.031596
    223 H28        85.4087   64.7731   35.9371 U7         2 LUT      0.084728
    224 H27        87.0082   67.3817   35.8761 U6         2 LUT      0.087291
    225 H26        87.1152   64.6557   34.2294 Q6         2 LUT      0.075325
    226 H24        88.6278   66.7811   31.4274 Q5         2 LUT      0.094482
    227 H23        90.7059   66.1736   32.9109 U3         2 LUT     -0.024869
    228 H22        68.5136   61.2433   50.5947 U2         2 LUT      0.127376
    229 H21        69.2157   61.5498   51.9755 U2         2 LUT      0.127376
    230 H15        77.6762   63.5059   40.4709 T3         2 LUT      0.093200
    231 H14        77.0132   64.8001   43.2338 T2         2 LUT      0.068865
    232 H12        74.9809   64.3095   44.5502 T1         2 LUT      0.095507
    233 H11        72.9353   62.5766   43.0421 U9         2 LUT      0.068930
    234 H10        73.0016   64.0746   45.7864 U8         2 LUT      0.083911
    235 H1         90.1770   64.8381   30.8974 Q1         2 LUT      0.297311
@<TRIPOS>BOND
    1     6     1 1
    2     7     2 1
    3     8     3 1
    4     9     4 1
    5    11     4 1
    6    12     6 1
    7    13     9 1
    8    16     9 1
    9    25     5 1
   10    25    16 1
   11    26    10 1
   12    26    17 1
   13    27    18 1
   14    28    14 1
   15    28    19 1
   16    29    12 1
   17    30    13 1
   18    31    24 1
   19    32     1 1
   20    32    25 1
   21    33    21 1
   22    33    26 1
   23    34    22 1
   24    34    27 1
   25    35    23 1
   26    35    28 1
   27    36    12 1
   28    36    24 1
   29    37    13 1
   30    37    15 1
   31    38    31 1
   32    39    20 1
   33    39    32 1
   34    40     2 1
   35    40    33 1
   36    41     3 1
   37    41    34 1
   38    42     4 1
   39    42    35 1
   40    43    38 1
   41    44     5 1
   42    44    17 1
   43    44    39 1
   44    45    10 1
   45    45    18 1
   46    45    40 1
   47    46    19 1
   48    46    41 1
   49    47    14 1
   50    47    16 1
   51    47    42 1
   52    48    38 1
   53    49    48 1
   54    50    49 1
   55    51    50 1
   56    52    51 1
   57    53    51 1
   58    54    53 1
   59    55    54 1
   60    56    55 1
   61    57    56 1
   62    58    56 1
   63    59    58 1
   64    60    59 1
   65    61    60 1
   66    62    61 1
   67    63    61 1
   68    64    27 1
   69    64    46 1
   70    65     5 1
   71    65    10 1
   72    65    64 1
   73    65    14 1
   74    66    23 1
   75    67    23 1
   76    68    23 1
   77    69    22 1
   78    70    22 1
   79    71    22 1
   80    72    21 1
   81    73    21 1
   82    74    21 1
   83    75    20 1
   84    76    20 1
   85    77    20 1
   86    78    15 1
   87    79    15 1
   88    80    15 1
   89    81     8 1
   90    82     8 1
   91    83     8 1
   92    84     7 1
   93    85     7 1
   94    86     6 1
   95    87     6 1
   96    88     3 1
   97    89     3 1
   98    90     1 1
   99    91     1 1
  100    92    63 1
  101    93    63 1
  102    94    63 1
  103    95    62 1
  104    96    62 1
  105    97    62 1
  106    98    60 1
  107    99    60 1
  108   100    59 1
  109   101    59 1
  110   102    58 1
  111   103    58 1
  112   104    57 1
  113   105    57 1
  114   106    57 1
  115   107    55 1
  116   108    55 1
  117   109    54 1
  118   110    54 1
  119   111    53 1
  120   112    53 1
  121   113    19 1
  122   114    18 1
  123   115    17 1
  124   116     9 1
  125   117     2 1
  126   118    52 1
  127   119    52 1
  128   120    52 1
  129   121    51 1
  130   122    50 1
  131   123    50 1
  132   124    49 1
  133   125    49 1
  134   126    48 1
  135   127    48 1
  136   128    43 1
  137   129    43 1
  138   130    43 1
  139   131    39 1
  140   132    32 1
  141   133    31 1
  142   134    61 1
  143   135    56 1
  144   136    24 1
  145   137    24 1
  146   139   138 1
  147   140   139 1
  148   141   140 1
  149   142   140 1
  150   143   142 1
  151   144   138 1
  152   144   143 1
  153   145   144 1
  154   146   145 1
  155   147   146 1
  156   148   147 1
  157   149   148 1
  158   150   149 1
  159   151   150 1
  160   152   151 1
  161   153   152 1
  162   154   138 1
  163   155   138 1
  164   156   143 1
  165   157   147 1
  166   158   151 1
  167   160   159 1
  168   161   160 1
  169   162   161 1
  170   163   161 1
  171   164   163 1
  172   165   159 1
  173   165   164 1
  174   166   165 1
  175   167   166 1
  176   168   167 1
  177   169   168 1
  178   170   169 1
  179   171   170 1
  180   172   171 1
  181   173   172 1
  182   174   153 1
  183   174   173 1
  184   175   159 1
  185   176   159 1
  186   177   164 1
  187   178   168 1
  188   179   172 1
  189   180   179 1
  190   181   179 1
  191   182   179 1
  192   183   178 1
  193   184   178 1
  194   185   178 1
  195   186   177 1
  196   187   177 1
  197   188   177 1
  198   189   176 1
  199   190   176 1
  200   191   176 1
  201   192   175 1
  202   193   175 1
  203   194   175 1
  204   195   160 1
  205   196   160 1
  206   197   158 1
  207   198   158 1
  208   199   158 1
  209   200   157 1
  210   201   157 1
  211   202   157 1
  212   203   156 1
  213   204   156 1
  214   205   156 1
  215   206   155 1
  216   207   155 1
  217   208   155 1
  218   209   154 1
  219   210   154 1
  220   211   154 1
  221   212   141 1
  222   213   146 1
  223   214   145 1
  224   215   142 1
  225   216   142 1
  226   217   174 1
  227   218   173 1
  228   219   171 1
  229   220   170 1
  230   221   169 1
  231   222   140 1
  232   223   167 1
  233   224   166 1
  234   225   165 1
  235   226   163 1
  236   227   161 1
  237   228   139 1
  238   229   139 1
  239   230   153 1
  240   231   152 1
  241   232   150 1
  242   233   149 1
  243   234   148 1
  244   235   162 1
  245   65    153 1
  246   65    174 1
@<TRIPOS>SUBSTRUCTURE
      1 CLA               1 ****               0 ****  **** 
      2 LUT             138 ****               0 ****  **** 
