@<TRIPOS>MOLECULE
Cpptraj generated mol2 file.
  235   246     2     0     0
SMALL
USER_CHARGES


@<TRIPOS>ATOM
      1 CAA        79.3929   59.3187   34.0598 a2         1 CLA     -0.055900
      2 CAB        79.5405   62.9330   43.1895 c8         1 CLA     -0.148500
      3 CAC        72.4345   59.2625   42.5924 a2         1 CLA     -0.012600
      4 CAD        75.2378   57.0133   35.2335 ck         1 CLA      0.398800
      5 NA         78.4104   59.7176   37.5137 ns         1 CLA     -0.225500
      6 CBA        80.3903   58.9812   32.9337 a2         1 CLA     -0.135000
      7 CBB        80.6968   62.8732   43.8461 c0         1 CLA     -0.395200
      8 CBC        72.5563   57.7569   42.7586 a3         1 CLA     -0.037700
      9 CBD        76.6848   57.5219   34.8932 a1         1 CLA     -0.053900
     10 NB         78.2399   61.2334   40.1714 nm         1 CLA     -0.295700
     11 OBD        74.6132   56.3519   34.4209 o2         1 CLA     -0.494600
     12 CGA        80.7912   57.4905   32.7104 c4         1 CLA      0.827000
     13 CGD        77.4762   56.3293   34.5490 c4         1 CLA      0.655300
     14 ND         75.6550   58.7727   38.1586 nm         1 CLA     -0.291600
     15 CED        78.3371   54.3027   35.4616 a3         1 CLA      0.005400
     16 CHA        77.0350   58.3848   36.1024 cs         1 CLA     -0.123800
     17 CHB        80.1393   60.9849   38.5639 aa         1 CLA     -0.291900
     18 CHC        77.0079   61.4064   42.2787 aa         1 CLA     -0.090400
     19 CHD        73.7176   58.7282   39.7220 aa         1 CLA     -0.052000
     20 CMA        81.9402   58.9582   36.8239 a3         1 CLA     -0.230700
     21 CMB        81.7088   62.5274   40.8051 a3         1 CLA     -0.180800
     22 CMC        74.6823   60.7375   44.4096 a3         1 CLA     -0.134000
     23 CMD        72.4797   57.1094   37.2036 a3         1 CLA     -0.141100
     24 C1         81.7964   55.5293   33.7067 a2         1 CLA      0.023000
     25 C1A        78.2283   59.0088   36.3498 ac         1 CLA     -0.015100
     26 C1B        79.5551   61.4656   39.7711 cr         1 CLA      0.054700
     27 C1C        75.8151   60.6313   41.9432 cn         1 CLA     -0.005600
     28 C1D        74.3615   58.3749   38.4986 ap         1 CLA     -0.047300
     29 O1A        80.6657   56.8783   31.6362 o2         1 CLA     -0.610800
     30 O1D        78.4047   56.3532   33.7685 o2         1 CLA     -0.558200
     31 C2         82.3958   55.3075   35.0372 c8         1 CLA     -0.325100
     32 C2A        79.5444   58.8511   35.5410 a1         1 CLA      0.098600
     33 C2B        80.2260   62.1931   40.8248 cb         1 CLA      0.088500
     34 C2C        74.7876   60.2915   42.8789 cb         1 CLA      0.053700
     35 C2D        73.8640   57.5452   37.3857 cb         1 CLA      0.058900
     36 O2A        81.3179   56.9359   33.8547 o1         1 CLA     -0.437200
     37 O2D        77.2685   55.3466   35.4500 o1         1 CLA     -0.357600
     38 C3         83.2646   54.3984   35.5558 c5         1 CLA      0.031200
     39 C3A        80.5417   59.6738   36.4283 a1         1 CLA      0.166800
     40 C3B        79.3550   62.3517   41.8874 cb         1 CLA      0.035000
     41 C3C        73.7351   59.7045   42.0526 cb         1 CLA     -0.089900
     42 C3D        74.8468   57.4860   36.4711 cb         1 CLA     -0.035900
     43 C4         82.8283   53.1305   36.1976 a3         1 CLA     -0.053300
     44 C4A        79.6800   60.2083   37.5765 ac         1 CLA      0.001800
     45 C4B        78.1196   61.6739   41.4590 cn         1 CLA     -0.020900
     46 C4C        74.3196   59.4517   40.7637 cr         1 CLA     -0.044400
     47 C4D        75.9378   58.2622   36.9757 c6         1 CLA     -0.046000
     48 C5         84.7308   54.6765   35.4436 a2         1 CLA     -0.070400
     49 C6         85.4955   55.8926   36.0450 a2         1 CLA      0.043900
     50 C7         85.0685   56.0222   37.5201 a2         1 CLA     -0.150000
     51 C8         85.2628   57.3079   38.2394 a1         1 CLA      0.064200
     52 C9         86.6470   57.8401   38.1229 a3         1 CLA     -0.259300
     53 C10        85.0012   57.2139   39.7646 a2         1 CLA     -0.071900
     54 C11        85.0995   58.4299   40.6018 a2         1 CLA      0.014500
     55 C12        84.5245   58.1877   41.9844 a2         1 CLA     -0.112100
     56 C13        84.5875   59.3800   42.8947 a1         1 CLA      0.089200
     57 C14        85.9548   60.1170   42.8980 a3         1 CLA     -0.239100
     58 C15        84.3145   58.9736   44.3694 a2         1 CLA     -0.102200
     59 C16        82.9784   58.1972   44.5742 a2         1 CLA      0.023900
     60 C17        81.6577   59.0724   44.2926 a2         1 CLA     -0.105700
     61 C18        80.2687   58.4481   44.6302 a1         1 CLA      0.206800
     62 C19        79.0502   59.4878   44.4116 a3         1 CLA     -0.280100
     63 C20        79.8461   57.2068   43.6886 a3         1 CLA     -0.280100
     64 NC         75.5884   60.0615   40.7231 nx         1 CLA     -0.309200
     65 MG         76.9828   60.0069   39.0912 mg         1 CLA      0.895000
     66 HMD3       72.2554   56.7868   38.2173 dc         1 CLA      0.064300
     67 HMD2       71.7423   57.9590   36.8379 dc         1 CLA      0.064300
     68 HMD1       72.4240   56.2716   36.5520 dc         1 CLA      0.064300
     69 HMC3       73.6086   60.9279   44.6249 dc         1 CLA      0.052100
     70 HMC2       74.9939   59.9453   45.0712 dc         1 CLA      0.052100
     71 HMC1       75.2288   61.6262   44.5320 dc         1 CLA      0.052100
     72 HMB3       81.9058   62.6943   39.7168 dc         1 CLA      0.063600
     73 HMB2       81.9932   63.4574   41.3249 dc         1 CLA      0.063600
     74 HMB1       82.3099   61.6226   41.0877 dc         1 CLA      0.063600
     75 HMA3       82.5027   58.7700   35.9170 dc         1 CLA      0.058300
     76 HMA2       82.5669   59.5141   37.5477 dc         1 CLA      0.058300
     77 HMA1       81.7096   58.0301   37.3120 dc         1 CLA      0.058300
     78 HED3       78.1809   53.7278   34.5614 dc         1 CLA      0.079300
     79 HED2       79.3218   54.7344   35.4000 dc         1 CLA      0.079300
     80 HED1       78.1079   53.6974   36.2653 dc         1 CLA      0.079300
     81 HBC3       72.9093   57.2636   41.8935 dc         1 CLA      0.016300
     82 HBC2       73.3184   57.5621   43.5243 dc         1 CLA      0.016300
     83 HBC1       71.6190   57.2869   43.0045 dc         1 CLA      0.016300
     84 HBB2       80.8545   63.1511   44.9068 da         1 CLA      0.183000
     85 HBB1       81.4542   62.2395   43.3774 da         1 CLA      0.183000
     86 HBA2       79.9151   59.2607   32.0298 dc         1 CLA      0.029400
     87 HBA1       81.3613   59.5476   33.1752 dc         1 CLA      0.029400
     88 HAC2       72.2011   59.7450   43.5788 dc         1 CLA      0.029300
     89 HAC1       71.6080   59.4254   41.7725 dc         1 CLA      0.029300
     90 HAA2       78.5089   58.9279   33.6260 dc         1 CLA      0.028700
     91 HAA1       79.2747   60.3488   34.1839 dc         1 CLA      0.028700
     92 H203       80.6209   56.4750   43.6824 dc         1 CLA      0.065600
     93 H202       78.9225   56.8254   44.0109 dc         1 CLA      0.065600
     94 H201       79.7619   57.4968   42.6308 dc         1 CLA      0.065600
     95 H193       78.0511   59.0395   44.3022 dc         1 CLA      0.065600
     96 H192       79.0814   60.1948   45.2331 dc         1 CLA      0.065600
     97 H191       79.2702   60.1281   43.5087 dc         1 CLA      0.065600
     98 H172       81.7261   59.9164   44.9511 dc         1 CLA      0.027600
     99 H171       81.6544   59.4522   43.2649 dc         1 CLA      0.027600
    100 H162       82.9804   57.2845   44.0648 dc         1 CLA      0.002900
    101 H161       82.9260   57.9644   45.6554 dc         1 CLA      0.002900
    102 H152       85.1532   58.3200   44.7890 dc         1 CLA      0.029100
    103 H151       84.3882   59.8468   44.9633 dc         1 CLA      0.029100
    104 H143       86.8260   59.5059   43.1303 dc         1 CLA      0.063600
    105 H142       86.1552   60.5456   41.9304 dc         1 CLA      0.063600
    106 H141       85.8768   60.8979   43.6509 dc         1 CLA      0.063600
    107 H122       83.5604   57.8498   41.8172 dc         1 CLA      0.032500
    108 H121       85.1040   57.3802   42.3040 dc         1 CLA      0.032500
    109 H112       86.0989   58.6099   40.7692 dc         1 CLA      0.006600
    110 H111       84.6952   59.2669   40.0473 dc         1 CLA      0.006600
    111 H102       83.9718   56.7949   39.9325 dc         1 CLA      0.024100
    112 H101       85.5777   56.3256   40.1215 dc         1 CLA      0.024100
    113 HHD        72.7164   58.3475   39.8227 da         1 CLA      0.174300
    114 HHC        77.0210   61.8862   43.2987 da         1 CLA      0.136800
    115 HHB        81.2288   61.1783   38.4945 da         1 CLA      0.138300
    116 HBD        76.5306   58.1433   34.0795 dc         1 CLA      0.107700
    117 HAB        78.7809   63.4308   43.7565 da         1 CLA      0.155200
    118 H93        86.7206   58.8701   38.4680 dc         1 CLA      0.069500
    119 H92        87.4269   57.2439   38.5584 dc         1 CLA      0.069500
    120 H91        86.9181   57.9811   37.1098 dc         1 CLA      0.069500
    121 H8         84.5965   57.9945   37.7534 dc         1 CLA      0.029300
    122 H72        84.0095   55.7749   37.5688 dc         1 CLA      0.044400
    123 H71        85.7194   55.3180   37.9067 dc         1 CLA      0.044400
    124 H62        86.5476   55.6542   35.8564 dc         1 CLA      0.015600
    125 H61        85.2002   56.7900   35.4348 dc         1 CLA      0.015600
    126 H52        85.3067   53.7986   35.8003 dc         1 CLA      0.033200
    127 H51        85.0580   54.7196   34.3859 dc         1 CLA      0.033200
    128 H43        81.8366   53.0004   36.1707 dc         1 CLA      0.037000
    129 H42        83.4179   52.3410   35.7422 dc         1 CLA      0.037000
    130 H41        83.1512   53.2360   37.2499 dc         1 CLA      0.037000
    131 H3A        80.8398   60.5912   35.8886 dc         1 CLA      0.041100
    132 H2A        79.7937   57.7706   35.5208 dc         1 CLA      0.083100
    133 H2         82.0714   56.0031   35.8291 da         1 CLA      0.180900
    134 H18        80.2128   58.1048   45.6375 dc         1 CLA     -0.003900
    135 H13        83.8157   60.0944   42.5322 dc         1 CLA      0.019700
    136 H12        80.9013   54.9546   33.6113 dc         1 CLA      0.120400
    137 H11        82.5317   55.2956   32.8382 dc         1 CLA      0.120400
    138 C1         68.6640   61.7716   50.4229 Z1         2 LUT      0.509236
    139 C2         67.3210   61.5222   50.9730 Z2         2 LUT     -0.434695
    140 C3         66.4591   62.7740   51.2565 Z3         2 LUT      0.437453
    141 O3         66.2545   62.8095   52.6791 S1         2 LUT     -0.547129
    142 C4         67.0142   64.0351   50.7085 Z4         2 LUT     -0.468603
    143 C5         67.7237   63.8451   49.4067 Z5         2 LUT      0.279246
    144 C6         68.6586   62.8381   49.3056 Z6         2 LUT     -0.305473
    145 C7         69.2180   62.3747   48.0257 Z7         2 LUT      0.069402
    146 C8         70.1254   63.0609   47.2871 Z8         2 LUT     -0.191631
    147 C9         70.6128   62.7613   45.8981 Z9         2 LUT      0.196698
    148 C10        71.6705   63.5029   45.5073 Y1         2 LUT     -0.208611
    149 C11        72.3412   63.4702   44.1826 Y2         2 LUT      0.030784
    150 C12        73.4695   64.1974   43.8623 Y3         2 LUT     -0.220316
    151 C13        74.2502   64.1370   42.5736 Y4         2 LUT      0.215937
    152 C14        75.5801   64.6493   42.5224 Y5         2 LUT     -0.185793
    153 C15        76.6408   64.8372   41.4892 Y6         2 LUT     -0.057835
    154 C16        69.1888   60.3741   50.0893 Y7         2 LUT     -0.405615
    155 C17        69.6876   62.3933   51.4842 Y7         2 LUT     -0.405615
    156 C18        67.1348   64.6305   48.2876 Y9         2 LUT     -0.369639
    157 C19        69.9838   61.5500   45.1727 W1         2 LUT     -0.333362
    158 C20        73.6456   63.4206   41.3538 W2         2 LUT     -0.323439
    159 C21        87.9949   66.1368   35.2320 Z1         2 LUT      0.406104
    160 C22        88.5697   65.4828   33.8944 Z2         2 LUT     -0.404965
    161 C23        88.5612   66.3403   32.6362 Z3         2 LUT      0.391255
    162 O23        89.1505   65.4804   31.7140 S1         2 LUT     -0.528210
    163 C24        87.1956   66.9654   32.4639 W6         2 LUT     -0.258361
    164 C25        86.2654   67.1140   33.3872 Z5         2 LUT      0.133546
    165 C26        86.5176   66.5796   34.9041 W8         2 LUT     -0.147008
    166 C27        85.8617   67.3636   36.0302 Z7         2 LUT      0.023843
    167 C28        84.6555   67.0789   36.5677 Z8         2 LUT     -0.216987
    168 C29        83.9790   67.5626   37.7740 Z9         2 LUT      0.206524
    169 C30        82.8356   66.8335   38.0807 Y1         2 LUT     -0.215556
    170 C31        82.1240   66.8758   39.3352 Y2         2 LUT      0.025142
    171 C32        80.9550   66.1123   39.5998 Y3         2 LUT     -0.212209
    172 C33        80.0877   66.1554   40.7109 Y4         2 LUT      0.240937
    173 C34        78.8954   65.4692   40.6941 Y5         2 LUT     -0.218862
    174 C35        77.8283   65.4677   41.7025 Y6         2 LUT     -0.023547
    175 C36        88.8978   67.3304   35.6856 Y7         2 LUT     -0.393485
    176 C37        88.2117   65.0481   36.3476 Y7         2 LUT     -0.393485
    177 C38        84.9012   67.6431   33.1122 Y9         2 LUT     -0.387526
    178 C39        84.5938   68.6865   38.7206 W1         2 LUT     -0.322618
    179 C40        80.6455   66.6421   41.9965 W2         2 LUT     -0.358472
    180 H403       81.7298   66.4751   42.0198 R7         2 LUT      0.097720
    181 H402       80.3330   67.6965   42.2425 R7         2 LUT      0.097720
    182 H401       80.3654   65.9753   42.8116 R7         2 LUT      0.097720
    183 H393       85.1078   68.2632   39.5126 R4         2 LUT      0.082505
    184 H392       85.0092   69.6276   38.2801 R4         2 LUT      0.082505
    185 H391       83.8388   69.1083   39.3839 R4         2 LUT      0.082505
    186 H383       84.4794   68.2301   33.9282 R1         2 LUT      0.104030
    187 H382       84.6900   68.2526   32.2305 R1         2 LUT      0.104030
    188 H381       84.1742   66.8954   32.9790 R1         2 LUT      0.104030
    189 H373       87.7569   64.0736   36.0727 T4         2 LUT      0.089537
    190 H372       89.2625   64.7775   36.5237 T4         2 LUT      0.089537
    191 H371       87.7411   65.2689   37.3246 T4         2 LUT      0.089537
    192 H363       88.8945   68.1762   34.9595 T4         2 LUT      0.089537
    193 H362       88.8139   67.6020   36.7237 T4         2 LUT      0.089537
    194 H361       89.8585   66.9627   35.6515 T4         2 LUT      0.089537
    195 H222       89.5797   65.1126   33.9416 U2         2 LUT      0.127376
    196 H221       87.8554   64.6394   33.6748 U2         2 LUT      0.127376
    197 H203       72.6856   63.7901   41.0524 R7         2 LUT      0.087068
    198 H202       74.3250   63.5340   40.5080 R7         2 LUT      0.087068
    199 H201       73.5131   62.3856   41.4725 R7         2 LUT      0.087068
    200 H193       70.4563   60.5548   45.2235 R4         2 LUT      0.089716
    201 H192       68.9839   61.4016   45.5160 R4         2 LUT      0.089716
    202 H191       69.9089   61.7341   44.0485 R4         2 LUT      0.089716
    203 H183       67.8097   65.5346   48.2647 R1         2 LUT      0.094572
    204 H182       67.3460   64.1943   47.2687 R1         2 LUT      0.094572
    205 H181       66.0980   64.9494   48.2992 R1         2 LUT      0.094572
    206 H173       69.2024   63.2049   51.9528 T4         2 LUT      0.093752
    207 H172       70.2049   61.7488   52.2300 T4         2 LUT      0.093752
    208 H171       70.5142   62.9406   50.9595 T4         2 LUT      0.093752
    209 H163       68.6335   60.0212   49.1924 T4         2 LUT      0.093752
    210 H162       70.2604   60.5088   49.7912 T4         2 LUT      0.093752
    211 H161       69.1436   59.6267   50.9365 T4         2 LUT      0.093752
    212 HO3        67.0309   62.7368   53.2464 Q1         2 LUT      0.300121
    213 H8         70.3895   64.0672   47.6504 U7         2 LUT      0.080784
    214 H7         68.9633   61.4262   47.5414 U6         2 LUT      0.042190
    215 H42        66.2274   64.7590   50.4533 U5         2 LUT      0.145166
    216 H41        67.6466   64.5945   51.3735 U5         2 LUT      0.145166
    217 H35        78.0381   65.8814   42.7185 T3         2 LUT      0.077919
    218 H34        78.5341   64.9644   39.8085 T2         2 LUT      0.073626
    219 H32        80.6599   65.4826   38.7381 T1         2 LUT      0.092510
    220 H31        82.5413   67.5401   40.1207 U9         2 LUT      0.070048
    221 H30        82.5067   66.0973   37.2677 U8         2 LUT      0.085442
    222 H3         65.4497   62.6840   50.8503 U3         2 LUT     -0.031596
    223 H28        83.9990   66.4216   35.9654 U7         2 LUT      0.084728
    224 H27        86.3868   68.1509   36.5157 U6         2 LUT      0.087291
    225 H26        86.1272   65.5637   34.9244 Q6         2 LUT      0.075325
    226 H24        87.0059   67.4922   31.5182 Q5         2 LUT      0.094482
    227 H23        89.3439   67.0331   32.7375 U3         2 LUT     -0.024869
    228 H22        66.7867   60.9056   50.3051 U2         2 LUT      0.127376
    229 H21        67.1977   60.8063   51.7710 U2         2 LUT      0.127376
    230 H15        76.3702   64.5164   40.5224 T3         2 LUT      0.093200
    231 H14        75.8610   65.0978   43.5198 T2         2 LUT      0.068865
    232 H12        73.8034   64.9071   44.6356 T1         2 LUT      0.095507
    233 H11        72.0097   62.7615   43.3987 U9         2 LUT      0.068930
    234 H10        71.9856   64.2634   46.2068 U8         2 LUT      0.083911
    235 H1         89.0367   65.8283   30.7947 Q1         2 LUT      0.297311
@<TRIPOS>BOND
    1     6     1 1
    2     7     2 1
    3     8     3 1
    4     9     4 1
    5    11     4 1
    6    12     6 1
    7    13     9 1
    8    16     9 1
    9    25     5 1
   10    25    16 1
   11    26    10 1
   12    26    17 1
   13    27    18 1
   14    28    14 1
   15    28    19 1
   16    29    12 1
   17    30    13 1
   18    31    24 1
   19    32     1 1
   20    32    25 1
   21    33    21 1
   22    33    26 1
   23    34    22 1
   24    34    27 1
   25    35    23 1
   26    35    28 1
   27    36    12 1
   28    36    24 1
   29    37    13 1
   30    37    15 1
   31    38    31 1
   32    39    20 1
   33    39    32 1
   34    40     2 1
   35    40    33 1
   36    41     3 1
   37    41    34 1
   38    42     4 1
   39    42    35 1
   40    43    38 1
   41    44     5 1
   42    44    17 1
   43    44    39 1
   44    45    10 1
   45    45    18 1
   46    45    40 1
   47    46    19 1
   48    46    41 1
   49    47    14 1
   50    47    16 1
   51    47    42 1
   52    48    38 1
   53    49    48 1
   54    50    49 1
   55    51    50 1
   56    52    51 1
   57    53    51 1
   58    54    53 1
   59    55    54 1
   60    56    55 1
   61    57    56 1
   62    58    56 1
   63    59    58 1
   64    60    59 1
   65    61    60 1
   66    62    61 1
   67    63    61 1
   68    64    27 1
   69    64    46 1
   70    65     5 1
   71    65    10 1
   72    65    64 1
   73    65    14 1
   74    66    23 1
   75    67    23 1
   76    68    23 1
   77    69    22 1
   78    70    22 1
   79    71    22 1
   80    72    21 1
   81    73    21 1
   82    74    21 1
   83    75    20 1
   84    76    20 1
   85    77    20 1
   86    78    15 1
   87    79    15 1
   88    80    15 1
   89    81     8 1
   90    82     8 1
   91    83     8 1
   92    84     7 1
   93    85     7 1
   94    86     6 1
   95    87     6 1
   96    88     3 1
   97    89     3 1
   98    90     1 1
   99    91     1 1
  100    92    63 1
  101    93    63 1
  102    94    63 1
  103    95    62 1
  104    96    62 1
  105    97    62 1
  106    98    60 1
  107    99    60 1
  108   100    59 1
  109   101    59 1
  110   102    58 1
  111   103    58 1
  112   104    57 1
  113   105    57 1
  114   106    57 1
  115   107    55 1
  116   108    55 1
  117   109    54 1
  118   110    54 1
  119   111    53 1
  120   112    53 1
  121   113    19 1
  122   114    18 1
  123   115    17 1
  124   116     9 1
  125   117     2 1
  126   118    52 1
  127   119    52 1
  128   120    52 1
  129   121    51 1
  130   122    50 1
  131   123    50 1
  132   124    49 1
  133   125    49 1
  134   126    48 1
  135   127    48 1
  136   128    43 1
  137   129    43 1
  138   130    43 1
  139   131    39 1
  140   132    32 1
  141   133    31 1
  142   134    61 1
  143   135    56 1
  144   136    24 1
  145   137    24 1
  146   139   138 1
  147   140   139 1
  148   141   140 1
  149   142   140 1
  150   143   142 1
  151   144   138 1
  152   144   143 1
  153   145   144 1
  154   146   145 1
  155   147   146 1
  156   148   147 1
  157   149   148 1
  158   150   149 1
  159   151   150 1
  160   152   151 1
  161   153   152 1
  162   154   138 1
  163   155   138 1
  164   156   143 1
  165   157   147 1
  166   158   151 1
  167   160   159 1
  168   161   160 1
  169   162   161 1
  170   163   161 1
  171   164   163 1
  172   165   159 1
  173   165   164 1
  174   166   165 1
  175   167   166 1
  176   168   167 1
  177   169   168 1
  178   170   169 1
  179   171   170 1
  180   172   171 1
  181   173   172 1
  182   174   153 1
  183   174   173 1
  184   175   159 1
  185   176   159 1
  186   177   164 1
  187   178   168 1
  188   179   172 1
  189   180   179 1
  190   181   179 1
  191   182   179 1
  192   183   178 1
  193   184   178 1
  194   185   178 1
  195   186   177 1
  196   187   177 1
  197   188   177 1
  198   189   176 1
  199   190   176 1
  200   191   176 1
  201   192   175 1
  202   193   175 1
  203   194   175 1
  204   195   160 1
  205   196   160 1
  206   197   158 1
  207   198   158 1
  208   199   158 1
  209   200   157 1
  210   201   157 1
  211   202   157 1
  212   203   156 1
  213   204   156 1
  214   205   156 1
  215   206   155 1
  216   207   155 1
  217   208   155 1
  218   209   154 1
  219   210   154 1
  220   211   154 1
  221   212   141 1
  222   213   146 1
  223   214   145 1
  224   215   142 1
  225   216   142 1
  226   217   174 1
  227   218   173 1
  228   219   171 1
  229   220   170 1
  230   221   169 1
  231   222   140 1
  232   223   167 1
  233   224   166 1
  234   225   165 1
  235   226   163 1
  236   227   161 1
  237   228   139 1
  238   229   139 1
  239   230   153 1
  240   231   152 1
  241   232   150 1
  242   233   149 1
  243   234   148 1
  244   235   162 1
  245   65    153 1
  246   65    174 1
@<TRIPOS>SUBSTRUCTURE
      1 CLA               1 ****               0 ****  **** 
      2 LUT             138 ****               0 ****  **** 
