@<TRIPOS>MOLECULE
Cpptraj generated mol2 file.
  235   246     2     0     0
SMALL
USER_CHARGES


@<TRIPOS>ATOM
      1 CAA        80.3158   57.4939   35.2283 a2         1 CLA     -0.055900
      2 CAB        80.1400   61.8350   43.8133 c8         1 CLA     -0.148500
      3 CAC        73.2807   58.0087   43.6772 a2         1 CLA     -0.012600
      4 CAD        75.6958   55.1558   36.4239 ck         1 CLA      0.398800
      5 NA         79.0949   57.8844   38.5227 ns         1 CLA     -0.225500
      6 CBA        81.5820   57.2443   34.4307 a2         1 CLA     -0.135000
      7 CBB        81.2518   62.3246   44.3762 c0         1 CLA     -0.395200
      8 CBC        73.5110   56.4895   43.9787 a3         1 CLA     -0.037700
      9 CBD        77.2012   55.4280   36.1967 a1         1 CLA     -0.053900
     10 NB         79.0554   59.6800   40.9392 nm         1 CLA     -0.295700
     11 OBD        75.0016   54.3430   35.8017 o2         1 CLA     -0.494600
     12 CGA        81.8478   55.7166   34.0579 c4         1 CLA      0.827000
     13 CGD        78.0888   54.1743   36.2258 c4         1 CLA      0.655300
     14 ND         76.2246   57.3590   39.0797 nm         1 CLA     -0.291600
     15 CED        78.6139   52.2437   37.3720 a3         1 CLA      0.005400
     16 CHA        77.6284   56.4639   37.2727 cs         1 CLA     -0.123800
     17 CHB        80.9326   59.2135   39.4508 aa         1 CLA     -0.291900
     18 CHC        77.7275   60.2287   42.9394 aa         1 CLA     -0.090400
     19 CHD        74.4290   57.5060   40.6566 aa         1 CLA     -0.052000
     20 CMA        82.0999   56.3723   38.4729 a3         1 CLA     -0.230700
     21 CMB        82.4755   61.0849   41.4783 a3         1 CLA     -0.180800
     22 CMC        75.5617   59.7332   45.0946 a3         1 CLA     -0.134000
     23 CMD        73.0336   55.7357   38.4165 a3         1 CLA     -0.141100
     24 C1         82.5493   53.5530   35.0046 a2         1 CLA      0.023000
     25 C1A        78.8718   57.1051   37.4232 ac         1 CLA     -0.015100
     26 C1B        80.3369   59.8476   40.5752 cr         1 CLA      0.054700
     27 C1C        76.4979   59.5757   42.6013 cn         1 CLA     -0.005600
     28 C1D        74.9101   57.0605   39.4242 ap         1 CLA     -0.047300
     29 O1A        81.4949   55.1744   33.0177 o2         1 CLA     -0.610800
     30 O1D        79.0044   53.8829   35.4321 o2         1 CLA     -0.558200
     31 C2         83.0962   53.1152   36.3874 c8         1 CLA     -0.325100
     32 C2A        80.2169   56.8513   36.6251 a1         1 CLA      0.098600
     33 C2B        81.0523   60.6595   41.5700 cb         1 CLA      0.088500
     34 C2C        75.5284   59.3450   43.5879 cb         1 CLA      0.053700
     35 C2D        74.3893   56.2336   38.4292 cb         1 CLA      0.058900
     36 O2A        82.4661   55.0223   35.0951 o1         1 CLA     -0.437200
     37 O2D        77.8280   53.4536   37.3379 o1         1 CLA     -0.357600
     38 C3         84.1911   52.3848   36.5357 c5         1 CLA      0.031200
     39 C3A        81.2385   57.4414   37.6444 a1         1 CLA      0.166800
     40 C3B        80.1250   60.9950   42.5779 cb         1 CLA      0.035000
     41 C3C        74.4578   58.6564   42.9782 cb         1 CLA     -0.089900
     42 C3D        75.3711   55.9569   37.5324 cb         1 CLA     -0.035900
     43 C4         84.2028   50.9295   36.1365 a3         1 CLA     -0.053300
     44 C4A        80.3782   58.2697   38.5445 ac         1 CLA      0.001800
     45 C4B        78.9333   60.2819   42.1807 cn         1 CLA     -0.020900
     46 C4C        75.0087   58.2896   41.6672 cr         1 CLA     -0.044400
     47 C4D        76.4903   56.6777   37.9671 c6         1 CLA     -0.046000
     48 C5         85.5431   53.0373   36.7600 a2         1 CLA     -0.070400
     49 C6         85.5168   54.2056   37.7920 a2         1 CLA      0.043900
     50 C7         86.9280   54.6537   38.1454 a2         1 CLA     -0.150000
     51 C8         86.9227   55.7580   39.2451 a1         1 CLA      0.064200
     52 C9         86.0453   56.9614   38.6989 a3         1 CLA     -0.259300
     53 C10        88.3664   56.1974   39.5715 a2         1 CLA     -0.071900
     54 C11        88.5801   57.2871   40.6213 a2         1 CLA      0.014500
     55 C12        88.3386   56.6860   42.0604 a2         1 CLA     -0.112100
     56 C13        88.4096   57.7085   43.2639 a1         1 CLA      0.089200
     57 C14        89.7274   57.4911   43.9790 a3         1 CLA     -0.239100
     58 C15        87.2034   57.5239   44.2086 a2         1 CLA     -0.102200
     59 C16        87.1903   58.3947   45.5526 a2         1 CLA      0.023900
     60 C17        86.0411   59.4548   45.5049 a2         1 CLA     -0.105700
     61 C18        84.6196   58.9638   45.7564 a1         1 CLA      0.206800
     62 C19        84.5629   57.8751   46.8501 a3         1 CLA     -0.280100
     63 C20        83.6816   60.0972   46.1467 a3         1 CLA     -0.280100
     64 NC         76.2257   58.9049   41.4878 nx         1 CLA     -0.309200
     65 MG         77.5879   58.5038   39.9761 mg         1 CLA      0.895000
     66 HMD3       73.0221   54.7851   37.9255 dc         1 CLA      0.064300
     67 HMD2       72.6516   55.7181   39.4505 dc         1 CLA      0.064300
     68 HMD1       72.4298   56.3832   37.7671 dc         1 CLA      0.064300
     69 HMC3       76.4601   59.3057   45.4093 dc         1 CLA      0.052100
     70 HMC2       75.7641   60.8151   45.2963 dc         1 CLA      0.052100
     71 HMC1       74.6639   59.4969   45.5571 dc         1 CLA      0.052100
     72 HMB3       82.5957   62.1515   41.5592 dc         1 CLA      0.063600
     73 HMB2       83.0025   60.5906   42.3320 dc         1 CLA      0.063600
     74 HMB1       82.9181   60.8188   40.5716 dc         1 CLA      0.063600
     75 HMA3       82.1624   56.8737   39.4378 dc         1 CLA      0.058300
     76 HMA2       81.5943   55.3918   38.6268 dc         1 CLA      0.058300
     77 HMA1       83.0623   56.1613   37.9443 dc         1 CLA      0.058300
     78 HED3       78.5598   51.6607   38.3004 dc         1 CLA      0.079300
     79 HED2       78.3166   51.5761   36.5216 dc         1 CLA      0.079300
     80 HED1       79.6914   52.3980   37.2543 dc         1 CLA      0.079300
     81 HBC3       74.4715   56.4117   44.5125 dc         1 CLA      0.016300
     82 HBC2       72.6689   56.1047   44.5343 dc         1 CLA      0.016300
     83 HBC1       73.5308   55.8490   43.0798 dc         1 CLA      0.016300
     84 HBB2       81.2551   62.9696   45.3435 da         1 CLA      0.183000
     85 HBB1       82.2385   62.3355   43.8528 da         1 CLA      0.183000
     86 HBA2       81.5008   57.7698   33.3997 dc         1 CLA      0.029400
     87 HBA1       82.4028   57.6760   34.9212 dc         1 CLA      0.029400
     88 HAC2       73.0766   58.3844   44.6462 dc         1 CLA      0.029300
     89 HAC1       72.3243   58.1596   43.1091 dc         1 CLA      0.029300
     90 HAA2       79.5014   57.1110   34.6142 dc         1 CLA      0.028700
     91 HAA1       80.0400   58.5809   35.3246 dc         1 CLA      0.028700
     92 H203       84.0940   60.6573   46.9939 dc         1 CLA      0.065600
     93 H202       83.5153   60.7992   45.3688 dc         1 CLA      0.065600
     94 H201       82.6846   59.8027   46.5056 dc         1 CLA      0.065600
     95 H193       84.9191   56.9780   46.3516 dc         1 CLA      0.065600
     96 H192       85.0638   58.0037   47.7509 dc         1 CLA      0.065600
     97 H191       83.4938   57.7242   46.9929 dc         1 CLA      0.065600
     98 H172       86.2714   60.1793   46.2770 dc         1 CLA      0.027600
     99 H171       86.2239   60.0454   44.6087 dc         1 CLA      0.027600
    100 H162       87.2843   57.7551   46.4246 dc         1 CLA      0.002900
    101 H161       88.0620   59.0928   45.5522 dc         1 CLA      0.002900
    102 H152       86.3404   57.7616   43.6097 dc         1 CLA      0.029100
    103 H151       87.0097   56.4564   44.4656 dc         1 CLA      0.029100
    104 H143       89.8262   57.8993   45.0120 dc         1 CLA      0.063600
    105 H142       89.8974   56.4474   44.1087 dc         1 CLA      0.063600
    106 H141       90.5256   57.8816   43.3238 dc         1 CLA      0.063600
    107 H122       87.3735   56.1416   42.0107 dc         1 CLA      0.032500
    108 H121       89.2342   55.9499   42.1113 dc         1 CLA      0.032500
    109 H112       89.5663   57.6423   40.4213 dc         1 CLA      0.006600
    110 H111       87.9633   58.2200   40.3696 dc         1 CLA      0.006600
    111 H102       88.9728   55.3376   39.9536 dc         1 CLA      0.024100
    112 H101       88.8343   56.5583   38.6334 dc         1 CLA      0.024100
    113 HHD        73.3872   57.2371   40.8712 da         1 CLA      0.174300
    114 HHC        77.5299   60.7175   43.8693 da         1 CLA      0.136800
    115 HHB        82.0185   59.2808   39.2550 da         1 CLA      0.138300
    116 HBD        77.4292   55.9255   35.2224 dc         1 CLA      0.107700
    117 HAB        79.1703   61.9377   44.3550 da         1 CLA      0.155200
    118 H93        86.1537   57.0261   37.6443 dc         1 CLA      0.069500
    119 H92        85.0387   56.6905   38.9587 dc         1 CLA      0.069500
    120 H91        86.2154   57.9364   39.1980 dc         1 CLA      0.069500
    121 H8         86.2655   55.6136   40.1463 dc         1 CLA      0.029300
    122 H72        87.4190   53.6960   38.3986 dc         1 CLA      0.044400
    123 H71        87.4268   55.0038   37.2446 dc         1 CLA      0.044400
    124 H62        85.0252   55.0587   37.3299 dc         1 CLA      0.015600
    125 H61        84.9444   53.8891   38.6894 dc         1 CLA      0.015600
    126 H52        86.3634   52.3885   37.0492 dc         1 CLA      0.033200
    127 H51        85.7172   53.5199   35.8007 dc         1 CLA      0.033200
    128 H43        84.7806   50.6847   35.2368 dc         1 CLA      0.037000
    129 H42        84.5421   50.4051   37.0319 dc         1 CLA      0.037000
    130 H41        83.1562   50.5835   35.8743 dc         1 CLA      0.037000
    131 H3A        81.9073   58.0796   37.0764 dc         1 CLA      0.041100
    132 H2A        80.4666   55.7570   36.6379 dc         1 CLA      0.083100
    133 H2         82.5719   53.4111   37.3237 da         1 CLA      0.180900
    134 H18        84.2222   58.4432   44.8976 dc         1 CLA     -0.003900
    135 H13        88.3710   58.7264   42.9419 dc         1 CLA      0.019700
    136 H12        81.6025   53.0727   34.7183 dc         1 CLA      0.120400
    137 H11        83.3404   53.2210   34.2864 dc         1 CLA      0.120400
    138 C1         68.9062   61.1513   50.5217 Z1         2 LUT      0.509236
    139 C2         67.5187   61.2015   51.1363 Z2         2 LUT     -0.434695
    140 C3         66.8733   62.5949   51.4527 Z3         2 LUT      0.437453
    141 O3         66.9582   63.0205   52.7945 S1         2 LUT     -0.547129
    142 C4         67.4938   63.7200   50.5543 Z4         2 LUT     -0.468603
    143 C5         68.1372   63.1854   49.3191 Z5         2 LUT      0.279246
    144 C6         68.9404   62.1040   49.2914 Z6         2 LUT     -0.305473
    145 C7         69.3023   61.4790   47.9798 Z7         2 LUT      0.069402
    146 C8         70.3770   61.9315   47.3616 Z8         2 LUT     -0.191631
    147 C9         70.9196   61.6422   46.0459 Z9         2 LUT      0.196698
    148 C10        72.1278   62.1327   45.7148 Y1         2 LUT     -0.208611
    149 C11        72.7544   62.2086   44.4135 Y2         2 LUT      0.030784
    150 C12        74.0504   62.6066   44.1114 Y3         2 LUT     -0.220316
    151 C13        74.8157   62.6122   42.8931 Y4         2 LUT      0.215937
    152 C14        76.0909   63.1854   42.8870 Y5         2 LUT     -0.185793
    153 C15        77.0561   63.2978   41.8979 Y6         2 LUT     -0.057835
    154 C16        69.1512   59.6128   50.4513 Y7         2 LUT     -0.405615
    155 C17        69.7894   61.6385   51.6548 Y7         2 LUT     -0.405615
    156 C18        67.5671   63.8447   48.0895 Y9         2 LUT     -0.369639
    157 C19        70.2535   60.6881   45.2004 W1         2 LUT     -0.333362
    158 C20        74.2256   62.2745   41.5409 W2         2 LUT     -0.323439
    159 C21        88.7135   64.5527   35.9339 Z1         2 LUT      0.406104
    160 C22        89.1609   63.8567   34.6386 Z2         2 LUT     -0.404965
    161 C23        89.1643   64.6577   33.3614 Z3         2 LUT      0.391255
    162 O23        89.5452   63.7325   32.3370 S1         2 LUT     -0.528210
    163 C24        87.8169   65.3955   33.1733 W6         2 LUT     -0.258361
    164 C25        87.0276   65.6349   34.2173 Z5         2 LUT      0.133546
    165 C26        87.2777   65.0665   35.7009 W8         2 LUT     -0.147008
    166 C27        86.6734   65.6829   36.9920 Z7         2 LUT      0.023843
    167 C28        85.3901   65.5345   37.3405 Z8         2 LUT     -0.216987
    168 C29        84.6604   65.8390   38.5953 Z9         2 LUT      0.206524
    169 C30        83.4870   65.2063   38.8665 Y1         2 LUT     -0.215556
    170 C31        82.6638   65.2636   40.0499 Y2         2 LUT      0.025142
    171 C32        81.3986   64.6912   40.1289 Y3         2 LUT     -0.212209
    172 C33        80.5336   64.6709   41.2842 Y4         2 LUT      0.240937
    173 C34        79.3777   64.0067   41.1274 Y5         2 LUT     -0.218862
    174 C35        78.3146   63.8442   42.1192 Y6         2 LUT     -0.023547
    175 C36        89.8687   65.5661   36.1508 Y7         2 LUT     -0.393485
    176 C37        88.8491   63.3434   36.9380 Y7         2 LUT     -0.393485
    177 C38        85.7821   66.4457   33.9785 Y9         2 LUT     -0.387526
    178 C39        85.3311   66.8013   39.5396 W1         2 LUT     -0.322618
    179 C40        81.0120   65.2537   42.6328 W2         2 LUT     -0.358472
    180 H403       81.2716   64.5038   43.3099 R7         2 LUT      0.097720
    181 H402       81.7534   66.0459   42.6040 R7         2 LUT      0.097720
    182 H401       80.1471   65.5989   43.1966 R7         2 LUT      0.097720
    183 H393       86.3871   66.9540   39.3697 R4         2 LUT      0.082505
    184 H392       84.9639   67.7923   39.4383 R4         2 LUT      0.082505
    185 H391       85.1678   66.4959   40.5222 R4         2 LUT      0.082505
    186 H383       86.0462   67.3006   33.3416 R1         2 LUT      0.104030
    187 H382       85.1561   65.7783   33.4714 R1         2 LUT      0.104030
    188 H381       85.2586   66.8276   34.8092 R1         2 LUT      0.104030
    189 H373       89.9183   63.0545   37.1540 T4         2 LUT      0.089537
    190 H372       88.5662   63.7557   37.8641 T4         2 LUT      0.089537
    191 H371       88.2846   62.4457   36.5999 T4         2 LUT      0.089537
    192 H363       90.1466   66.1317   35.2644 T4         2 LUT      0.089537
    193 H362       89.6811   66.3679   36.8239 T4         2 LUT      0.089537
    194 H361       90.7700   65.0291   36.5080 T4         2 LUT      0.089537
    195 H222       90.1375   63.4436   34.6819 U2         2 LUT      0.127376
    196 H221       88.5245   62.9244   34.5151 U2         2 LUT      0.127376
    197 H203       74.8397   62.5511   40.6870 R7         2 LUT      0.087068
    198 H202       73.9354   61.1683   41.4382 R7         2 LUT      0.087068
    199 H201       73.2979   62.7806   41.3114 R7         2 LUT      0.087068
    200 H193       69.2198   60.4045   45.4867 R4         2 LUT      0.089716
    201 H192       70.3065   60.9736   44.1638 R4         2 LUT      0.089716
    202 H191       70.7738   59.7224   45.1983 R4         2 LUT      0.089716
    203 H183       66.5904   64.3192   48.2832 R1         2 LUT      0.094572
    204 H182       68.2645   64.5583   47.6558 R1         2 LUT      0.094572
    205 H181       67.3724   63.1006   47.3928 R1         2 LUT      0.094572
    206 H173       69.3312   62.1102   52.4998 T4         2 LUT      0.093752
    207 H172       70.4304   60.8495   52.1525 T4         2 LUT      0.093752
    208 H171       70.5213   62.3504   51.3146 T4         2 LUT      0.093752
    209 H163       70.2295   59.4733   50.1099 T4         2 LUT      0.093752
    210 H162       69.0992   59.0774   51.3306 T4         2 LUT      0.093752
    211 H161       68.4422   59.0933   49.8044 T4         2 LUT      0.093752
    212 HO3        66.4132   62.3726   53.2912 Q1         2 LUT      0.300121
    213 H8         71.0784   62.5575   47.9106 U7         2 LUT      0.080784
    214 H7         68.6603   60.7427   47.5346 U6         2 LUT      0.042190
    215 H42        66.6542   64.4400   50.4627 U5         2 LUT      0.145166
    216 H41        68.1199   64.3574   51.1935 U5         2 LUT      0.145166
    217 H35        78.4705   64.1383   43.1238 T3         2 LUT      0.077919
    218 H34        79.1296   63.5263   40.2088 T2         2 LUT      0.073626
    219 H32        81.1814   64.2020   39.1436 T1         2 LUT      0.092510
    220 H31        83.0341   65.7723   40.9209 U9         2 LUT      0.070048
    221 H30        83.1424   64.4535   38.1897 U8         2 LUT      0.085442
    222 H3         65.8488   62.4076   51.1506 U3         2 LUT     -0.031596
    223 H28        84.9238   64.9592   36.6097 U7         2 LUT      0.084728
    224 H27        87.3537   66.1838   37.6399 U6         2 LUT      0.087291
    225 H26        86.7203   64.0999   35.5270 Q6         2 LUT      0.075325
    226 H24        87.5937   65.6761   32.1168 Q5         2 LUT      0.094482
    227 H23        89.8433   65.4629   33.4911 U3         2 LUT     -0.024869
    228 H22        66.8228   60.8755   50.3779 U2         2 LUT      0.127376
    229 H21        67.3098   60.4918   51.9937 U2         2 LUT      0.127376
    230 H15        76.8171   62.9327   40.8672 T3         2 LUT      0.093200
    231 H14        76.4192   63.6731   43.8081 T2         2 LUT      0.068865
    232 H12        74.6827   62.9069   44.9522 T1         2 LUT      0.095507
    233 H11        72.2990   61.7830   43.4659 U9         2 LUT      0.068930
    234 H10        72.6834   62.7795   46.4068 U8         2 LUT      0.083911
    235 H1         89.5208   64.2140   31.4730 Q1         2 LUT      0.297311
@<TRIPOS>BOND
    1     6     1 1
    2     7     2 1
    3     8     3 1
    4     9     4 1
    5    11     4 1
    6    12     6 1
    7    13     9 1
    8    16     9 1
    9    25     5 1
   10    25    16 1
   11    26    10 1
   12    26    17 1
   13    27    18 1
   14    28    14 1
   15    28    19 1
   16    29    12 1
   17    30    13 1
   18    31    24 1
   19    32     1 1
   20    32    25 1
   21    33    21 1
   22    33    26 1
   23    34    22 1
   24    34    27 1
   25    35    23 1
   26    35    28 1
   27    36    12 1
   28    36    24 1
   29    37    13 1
   30    37    15 1
   31    38    31 1
   32    39    20 1
   33    39    32 1
   34    40     2 1
   35    40    33 1
   36    41     3 1
   37    41    34 1
   38    42     4 1
   39    42    35 1
   40    43    38 1
   41    44     5 1
   42    44    17 1
   43    44    39 1
   44    45    10 1
   45    45    18 1
   46    45    40 1
   47    46    19 1
   48    46    41 1
   49    47    14 1
   50    47    16 1
   51    47    42 1
   52    48    38 1
   53    49    48 1
   54    50    49 1
   55    51    50 1
   56    52    51 1
   57    53    51 1
   58    54    53 1
   59    55    54 1
   60    56    55 1
   61    57    56 1
   62    58    56 1
   63    59    58 1
   64    60    59 1
   65    61    60 1
   66    62    61 1
   67    63    61 1
   68    64    27 1
   69    64    46 1
   70    65     5 1
   71    65    10 1
   72    65    64 1
   73    65    14 1
   74    66    23 1
   75    67    23 1
   76    68    23 1
   77    69    22 1
   78    70    22 1
   79    71    22 1
   80    72    21 1
   81    73    21 1
   82    74    21 1
   83    75    20 1
   84    76    20 1
   85    77    20 1
   86    78    15 1
   87    79    15 1
   88    80    15 1
   89    81     8 1
   90    82     8 1
   91    83     8 1
   92    84     7 1
   93    85     7 1
   94    86     6 1
   95    87     6 1
   96    88     3 1
   97    89     3 1
   98    90     1 1
   99    91     1 1
  100    92    63 1
  101    93    63 1
  102    94    63 1
  103    95    62 1
  104    96    62 1
  105    97    62 1
  106    98    60 1
  107    99    60 1
  108   100    59 1
  109   101    59 1
  110   102    58 1
  111   103    58 1
  112   104    57 1
  113   105    57 1
  114   106    57 1
  115   107    55 1
  116   108    55 1
  117   109    54 1
  118   110    54 1
  119   111    53 1
  120   112    53 1
  121   113    19 1
  122   114    18 1
  123   115    17 1
  124   116     9 1
  125   117     2 1
  126   118    52 1
  127   119    52 1
  128   120    52 1
  129   121    51 1
  130   122    50 1
  131   123    50 1
  132   124    49 1
  133   125    49 1
  134   126    48 1
  135   127    48 1
  136   128    43 1
  137   129    43 1
  138   130    43 1
  139   131    39 1
  140   132    32 1
  141   133    31 1
  142   134    61 1
  143   135    56 1
  144   136    24 1
  145   137    24 1
  146   139   138 1
  147   140   139 1
  148   141   140 1
  149   142   140 1
  150   143   142 1
  151   144   138 1
  152   144   143 1
  153   145   144 1
  154   146   145 1
  155   147   146 1
  156   148   147 1
  157   149   148 1
  158   150   149 1
  159   151   150 1
  160   152   151 1
  161   153   152 1
  162   154   138 1
  163   155   138 1
  164   156   143 1
  165   157   147 1
  166   158   151 1
  167   160   159 1
  168   161   160 1
  169   162   161 1
  170   163   161 1
  171   164   163 1
  172   165   159 1
  173   165   164 1
  174   166   165 1
  175   167   166 1
  176   168   167 1
  177   169   168 1
  178   170   169 1
  179   171   170 1
  180   172   171 1
  181   173   172 1
  182   174   153 1
  183   174   173 1
  184   175   159 1
  185   176   159 1
  186   177   164 1
  187   178   168 1
  188   179   172 1
  189   180   179 1
  190   181   179 1
  191   182   179 1
  192   183   178 1
  193   184   178 1
  194   185   178 1
  195   186   177 1
  196   187   177 1
  197   188   177 1
  198   189   176 1
  199   190   176 1
  200   191   176 1
  201   192   175 1
  202   193   175 1
  203   194   175 1
  204   195   160 1
  205   196   160 1
  206   197   158 1
  207   198   158 1
  208   199   158 1
  209   200   157 1
  210   201   157 1
  211   202   157 1
  212   203   156 1
  213   204   156 1
  214   205   156 1
  215   206   155 1
  216   207   155 1
  217   208   155 1
  218   209   154 1
  219   210   154 1
  220   211   154 1
  221   212   141 1
  222   213   146 1
  223   214   145 1
  224   215   142 1
  225   216   142 1
  226   217   174 1
  227   218   173 1
  228   219   171 1
  229   220   170 1
  230   221   169 1
  231   222   140 1
  232   223   167 1
  233   224   166 1
  234   225   165 1
  235   226   163 1
  236   227   161 1
  237   228   139 1
  238   229   139 1
  239   230   153 1
  240   231   152 1
  241   232   150 1
  242   233   149 1
  243   234   148 1
  244   235   162 1
  245   65    153 1
  246   65    174 1
@<TRIPOS>SUBSTRUCTURE
      1 CLA               1 ****               0 ****  **** 
      2 LUT             138 ****               0 ****  **** 
