@<TRIPOS>MOLECULE
Cpptraj generated mol2 file.
  235   246     2     0     0
SMALL
USER_CHARGES


@<TRIPOS>ATOM
      1 CAA        77.5131   58.1645   34.1206 a2         1 CLA     -0.055900
      2 CAB        77.7692   62.3023   43.0363 c8         1 CLA     -0.148500
      3 CAC        70.9508   57.9300   43.0488 a2         1 CLA     -0.012600
      4 CAD        73.3311   55.5724   35.6695 ck         1 CLA      0.398800
      5 NA         76.6043   58.6544   37.5846 ns         1 CLA     -0.225500
      6 CBA        78.7549   58.0906   33.2024 a2         1 CLA     -0.135000
      7 CBB        78.9812   62.4932   43.6187 c0         1 CLA     -0.395200
      8 CBC        70.9835   56.4127   42.8637 a3         1 CLA     -0.037700
      9 CBD        74.8448   55.9532   35.3298 a1         1 CLA     -0.053900
     10 NB         76.6021   60.2266   40.1830 nm         1 CLA     -0.295700
     11 OBD        72.6693   54.7414   35.0041 o2         1 CLA     -0.494600
     12 CGA        79.4519   56.7861   32.8871 c4         1 CLA      0.827000
     13 CGD        75.6899   54.6603   35.3095 c4         1 CLA      0.655300
     14 ND         73.8647   57.6877   38.3767 nm         1 CLA     -0.291600
     15 CED        76.2393   52.6401   36.5404 a3         1 CLA      0.005400
     16 CHA        75.2424   56.9549   36.3783 cs         1 CLA     -0.123800
     17 CHB        78.3255   60.1371   38.5030 aa         1 CLA     -0.291900
     18 CHC        75.3312   60.4744   42.2636 aa         1 CLA     -0.090400
     19 CHD        72.0893   57.7882   39.9777 aa         1 CLA     -0.052000
     20 CMA        79.9694   57.9726   36.7891 a3         1 CLA     -0.230700
     21 CMB        79.8045   62.0166   40.5134 a3         1 CLA     -0.180800
     22 CMC        73.2163   59.8430   44.4825 a3         1 CLA     -0.134000
     23 CMD        70.7013   55.7340   38.0266 a3         1 CLA     -0.141100
     24 C1         80.7426   55.0431   33.7883 a2         1 CLA      0.023000
     25 C1A        76.4312   57.7355   36.5207 ac         1 CLA     -0.015100
     26 C1B        77.7852   60.5358   39.7170 cr         1 CLA      0.054700
     27 C1C        74.1613   59.7063   42.0378 cn         1 CLA     -0.005600
     28 C1D        72.6382   57.3352   38.7794 ap         1 CLA     -0.047300
     29 O1A        79.7309   56.3839   31.7886 o2         1 CLA     -0.610800
     30 O1D        76.2465   54.2675   34.3261 o2         1 CLA     -0.558200
     31 C2         81.0674   54.4906   35.1897 c8         1 CLA     -0.325100
     32 C2A        77.6595   57.6619   35.6119 a1         1 CLA      0.098600
     33 C2B        78.3810   61.3852   40.6962 cb         1 CLA      0.088500
     34 C2C        73.1378   59.3422   43.0498 cb         1 CLA      0.053700
     35 C2D        72.0479   56.4080   37.8388 cb         1 CLA      0.058900
     36 O2A        79.9392   56.1991   33.9854 o1         1 CLA     -0.437200
     37 O2D        75.5798   53.9371   36.5049 o1         1 CLA     -0.357600
     38 C3         82.2827   54.4931   35.8532 c5         1 CLA      0.031200
     39 C3A        78.6410   58.6501   36.3544 a1         1 CLA      0.166800
     40 C3B        77.5535   61.5158   41.7719 cb         1 CLA      0.035000
     41 C3C        72.2238   58.5494   42.4283 cb         1 CLA     -0.089900
     42 C3D        73.0323   56.2625   36.9075 cb         1 CLA     -0.035900
     43 C4         83.3612   53.4005   35.7128 a3         1 CLA     -0.053300
     44 C4A        77.8622   59.1848   37.5669 ac         1 CLA      0.001800
     45 C4B        76.4447   60.6986   41.4411 cn         1 CLA     -0.020900
     46 C4C        72.6814   58.4434   41.0249 cr         1 CLA     -0.044400
     47 C4D        74.1054   57.0177   37.2605 c6         1 CLA     -0.046000
     48 C5         82.5460   55.7520   36.7810 a2         1 CLA     -0.070400
     49 C6         83.8344   55.4915   37.6700 a2         1 CLA      0.043900
     50 C7         84.0615   56.5151   38.7826 a2         1 CLA     -0.150000
     51 C8         84.0887   58.0235   38.4611 a1         1 CLA      0.064200
     52 C9         85.2622   58.4329   37.5170 a3         1 CLA     -0.259300
     53 C10        84.2053   58.7719   39.8188 a2         1 CLA     -0.071900
     54 C11        83.0593   58.7075   40.8686 a2         1 CLA      0.014500
     55 C12        82.9862   60.0518   41.7324 a2         1 CLA     -0.112100
     56 C13        84.0970   60.2197   42.7628 a1         1 CLA      0.089200
     57 C14        84.2134   59.0028   43.7229 a3         1 CLA     -0.239100
     58 C15        84.1223   61.5095   43.6806 a2         1 CLA     -0.102200
     59 C16        82.7618   61.7574   44.4312 a2         1 CLA      0.023900
     60 C17        82.6993   62.9978   45.3411 a2         1 CLA     -0.105700
     61 C18        83.9511   63.4312   46.0791 a1         1 CLA      0.206800
     62 C19        83.8675   64.8856   46.6519 a3         1 CLA     -0.280100
     63 C20        84.1405   62.3394   47.1699 a3         1 CLA     -0.280100
     64 NC         73.9136   59.0649   40.8621 nx         1 CLA     -0.309200
     65 MG         75.1917   59.0387   39.1961 mg         1 CLA      0.895000
     66 HMD3       70.8663   55.0814   37.2099 dc         1 CLA      0.064300
     67 HMD2       70.5661   55.1614   38.9582 dc         1 CLA      0.064300
     68 HMD1       69.7646   56.3564   37.7440 dc         1 CLA      0.064300
     69 HMC3       74.1768   60.1959   44.7603 dc         1 CLA      0.052100
     70 HMC2       72.4679   60.6305   44.5758 dc         1 CLA      0.052100
     71 HMC1       72.9744   58.9193   44.9870 dc         1 CLA      0.052100
     72 HMB3       79.7398   62.3105   39.4607 dc         1 CLA      0.063600
     73 HMB2       80.0122   62.8732   41.1995 dc         1 CLA      0.063600
     74 HMB1       80.5116   61.1822   40.5617 dc         1 CLA      0.063600
     75 HMA3       80.5104   57.5208   35.9772 dc         1 CLA      0.058300
     76 HMA2       80.5186   58.7602   37.4272 dc         1 CLA      0.058300
     77 HMA1       79.7023   57.1614   37.5053 dc         1 CLA      0.058300
     78 HED3       76.0897   52.0440   35.5791 dc         1 CLA      0.079300
     79 HED2       77.3220   52.7726   36.6581 dc         1 CLA      0.079300
     80 HED1       75.8551   52.0039   37.3560 dc         1 CLA      0.079300
     81 HBC3       71.4456   55.9445   43.6859 dc         1 CLA      0.016300
     82 HBC2       69.9502   56.0195   42.7361 dc         1 CLA      0.016300
     83 HBC1       71.4628   56.1512   41.9180 dc         1 CLA      0.016300
     84 HBB2       79.0484   62.8271   44.6891 da         1 CLA      0.183000
     85 HBB1       79.8518   61.9813   43.1610 da         1 CLA      0.183000
     86 HBA2       78.4324   58.4256   32.2024 dc         1 CLA      0.029400
     87 HBA1       79.5723   58.7803   33.3741 dc         1 CLA      0.029400
     88 HAC2       70.8711   58.2100   44.0542 dc         1 CLA      0.029300
     89 HAC1       70.0899   58.3394   42.4469 dc         1 CLA      0.029300
     90 HAA2       76.7377   57.5128   33.6530 dc         1 CLA      0.028700
     91 HAA1       77.0449   59.1311   34.1413 dc         1 CLA      0.028700
     92 H203       83.2042   62.1462   47.7034 dc         1 CLA      0.065600
     93 H202       84.4211   61.3935   46.6816 dc         1 CLA      0.065600
     94 H201       84.9078   62.7095   47.7859 dc         1 CLA      0.065600
     95 H193       83.3611   65.5392   45.9523 dc         1 CLA      0.065600
     96 H192       83.2321   64.8742   47.5638 dc         1 CLA      0.065600
     97 H191       84.9415   65.3135   46.7838 dc         1 CLA      0.065600
     98 H172       82.5271   63.8411   44.6659 dc         1 CLA      0.027600
     99 H171       81.8513   62.8535   46.0102 dc         1 CLA      0.027600
    100 H162       81.9685   61.9382   43.6847 dc         1 CLA      0.002900
    101 H161       82.4956   60.9736   45.1174 dc         1 CLA      0.002900
    102 H152       84.8845   61.3385   44.4481 dc         1 CLA      0.029100
    103 H151       84.3187   62.4199   43.1251 dc         1 CLA      0.029100
    104 H143       83.2644   58.8734   44.1090 dc         1 CLA      0.063600
    105 H142       84.6659   58.1810   43.1065 dc         1 CLA      0.063600
    106 H141       85.0040   59.2766   44.4085 dc         1 CLA      0.063600
    107 H122       82.8906   61.0029   41.1929 dc         1 CLA      0.032500
    108 H121       81.9906   59.9205   42.1815 dc         1 CLA      0.032500
    109 H112       82.0247   58.6304   40.4162 dc         1 CLA      0.006600
    110 H111       83.1662   57.8516   41.5986 dc         1 CLA      0.006600
    111 H102       85.1469   58.4194   40.3122 dc         1 CLA      0.024100
    112 H101       84.2753   59.8370   39.4978 dc         1 CLA      0.024100
    113 HHD        71.0933   57.3530   40.1700 da         1 CLA      0.174300
    114 HHC        75.4093   60.8512   43.2941 da         1 CLA      0.136800
    115 HHB        79.4078   60.4877   38.2789 da         1 CLA      0.138300
    116 HBD        74.9288   56.5242   34.3814 dc         1 CLA      0.107700
    117 HAB        76.8607   62.7025   43.5431 da         1 CLA      0.155200
    118 H93        86.2164   58.3862   37.9498 dc         1 CLA      0.069500
    119 H92        85.2849   57.9253   36.5732 dc         1 CLA      0.069500
    120 H91        85.1846   59.4962   37.3395 dc         1 CLA      0.069500
    121 H8         83.2128   58.4257   38.0316 dc         1 CLA      0.029300
    122 H72        83.3415   56.3777   39.5601 dc         1 CLA      0.044400
    123 H71        84.9812   56.3410   39.3061 dc         1 CLA      0.044400
    124 H62        83.7707   54.4608   38.0391 dc         1 CLA      0.015600
    125 H61        84.7404   55.5060   37.0691 dc         1 CLA      0.015600
    126 H52        82.6453   56.5918   36.1174 dc         1 CLA      0.033200
    127 H51        81.7465   55.9851   37.4173 dc         1 CLA      0.033200
    128 H43        84.2191   53.8483   35.2587 dc         1 CLA      0.037000
    129 H42        83.4748   52.9058   36.6622 dc         1 CLA      0.037000
    130 H41        82.8847   52.7061   35.0391 dc         1 CLA      0.037000
    131 H3A        78.9766   59.4563   35.6750 dc         1 CLA      0.041100
    132 H2A        78.1622   56.6715   35.5832 dc         1 CLA      0.083100
    133 H2         80.3103   53.9498   35.7393 da         1 CLA      0.180900
    134 H18        84.8202   63.4318   45.4224 dc         1 CLA     -0.003900
    135 H13        85.0346   60.2814   42.2012 dc         1 CLA      0.019700
    136 H12        80.1157   54.2772   33.2342 dc         1 CLA      0.120400
    137 H11        81.6023   55.3621   33.2564 dc         1 CLA      0.120400
    138 C1         67.4198   61.9365   50.4298 Z1         2 LUT      0.509236
    139 C2         67.3711   63.2513   51.2822 Z2         2 LUT     -0.434695
    140 C3         66.0284   64.0021   51.3657 Z3         2 LUT      0.437453
    141 O3         66.2074   65.2908   51.7413 S1         2 LUT     -0.547129
    142 C4         65.3139   63.9593   50.0187 Z4         2 LUT     -0.468603
    143 C5         66.0626   63.3993   48.8084 Z5         2 LUT      0.279246
    144 C6         66.9768   62.4383   48.9574 Z6         2 LUT     -0.305473
    145 C7         67.7637   62.0361   47.8905 Z7         2 LUT      0.069402
    146 C8         68.6044   62.6669   47.0334 Z8         2 LUT     -0.191631
    147 C9         69.1690   62.1736   45.7368 Z9         2 LUT      0.196698
    148 C10        70.0660   62.8659   44.9880 Y1         2 LUT     -0.208611
    149 C11        70.7325   62.6592   43.7342 Y2         2 LUT      0.030784
    150 C12        71.6959   63.4231   43.1971 Y3         2 LUT     -0.220316
    151 C13        72.6542   63.1854   42.0597 Y4         2 LUT      0.215937
    152 C14        73.8272   63.9243   41.9503 Y5         2 LUT     -0.185793
    153 C15        74.8243   63.9312   40.9561 Y6         2 LUT     -0.057835
    154 C16        66.4195   61.0159   50.9780 Y7         2 LUT     -0.405615
    155 C17        68.7480   61.2681   50.5419 Y7         2 LUT     -0.405615
    156 C18        65.6346   64.0677   47.5451 Y9         2 LUT     -0.369639
    157 C19        68.6254   60.9308   45.0837 W1         2 LUT     -0.333362
    158 C20        72.2902   62.2060   41.0350 W2         2 LUT     -0.323439
    159 C21        86.2691   65.4590   35.1156 Z1         2 LUT      0.406104
    160 C22        87.0809   65.0963   33.8118 Z2         2 LUT     -0.404965
    161 C23        87.0002   66.0773   32.6883 Z3         2 LUT      0.391255
    162 O23        87.8559   65.6058   31.6670 S1         2 LUT     -0.528210
    163 C24        85.5161   66.4641   32.4441 W6         2 LUT     -0.258361
    164 C25        84.5243   66.2962   33.4069 Z5         2 LUT      0.133546
    165 C26        84.7912   65.6645   34.8237 W8         2 LUT     -0.147008
    166 C27        84.0718   66.4372   35.8591 Z7         2 LUT      0.023843
    167 C28        82.8742   66.1163   36.3582 Z8         2 LUT     -0.216987
    168 C29        82.1216   66.6382   37.5249 Z9         2 LUT      0.206524
    169 C30        81.0448   65.9388   37.9719 Y1         2 LUT     -0.215556
    170 C31        80.1012   66.1888   39.0127 Y2         2 LUT      0.025142
    171 C32        79.0566   65.3710   39.2737 Y3         2 LUT     -0.212209
    172 C33        78.1015   65.5536   40.3059 Y4         2 LUT      0.240937
    173 C34        76.9780   64.7780   40.2559 Y5         2 LUT     -0.218862
    174 C35        75.9026   64.7670   41.1671 Y6         2 LUT     -0.023547
    175 C36        87.0287   66.6550   35.7459 Y7         2 LUT     -0.393485
    176 C37        86.4081   64.2544   36.0475 Y7         2 LUT     -0.393485
    177 C38        83.1847   66.8890   33.0830 Y9         2 LUT     -0.387526
    178 C39        82.6686   67.8380   38.1819 W1         2 LUT     -0.322618
    179 C40        78.4615   66.4760   41.4573 W2         2 LUT     -0.358472
    180 H403       78.0449   67.4744   41.2175 R7         2 LUT      0.097720
    181 H402       77.9691   66.2211   42.4078 R7         2 LUT      0.097720
    182 H401       79.4959   66.5199   41.6493 R7         2 LUT      0.097720
    183 H393       82.8270   68.6265   37.4588 R4         2 LUT      0.082505
    184 H392       81.9868   68.3697   38.8377 R4         2 LUT      0.082505
    185 H391       83.6237   67.5642   38.6940 R4         2 LUT      0.082505
    186 H383       82.9584   66.5476   32.0595 R1         2 LUT      0.104030
    187 H382       82.4256   66.4055   33.7910 R1         2 LUT      0.104030
    188 H381       83.1617   67.9586   33.3910 R1         2 LUT      0.104030
    189 H373       85.9694   64.4616   36.9976 T4         2 LUT      0.089537
    190 H372       85.9314   63.3837   35.6416 T4         2 LUT      0.089537
    191 H371       87.4575   64.0718   36.2484 T4         2 LUT      0.089537
    192 H363       86.9181   67.5976   35.1737 T4         2 LUT      0.089537
    193 H362       86.6022   66.9365   36.7419 T4         2 LUT      0.089537
    194 H361       88.1420   66.4143   35.9081 T4         2 LUT      0.089537
    195 H222       88.1441   64.9519   34.0614 U2         2 LUT      0.127376
    196 H221       86.7893   64.0996   33.4589 U2         2 LUT      0.127376
    197 H203       73.0690   61.9349   40.3758 R7         2 LUT      0.087068
    198 H202       71.8933   61.3120   41.4528 R7         2 LUT      0.087068
    199 H201       71.4503   62.4924   40.3713 R7         2 LUT      0.087068
    200 H193       67.6152   60.6822   45.4262 R4         2 LUT      0.089716
    201 H192       68.5677   61.0620   44.0069 R4         2 LUT      0.089716
    202 H191       69.2389   60.0338   45.2413 R4         2 LUT      0.089716
    203 H183       64.5264   64.2403   47.5238 R1         2 LUT      0.094572
    204 H182       66.0971   65.0312   47.3786 R1         2 LUT      0.094572
    205 H181       65.8570   63.3914   46.6824 R1         2 LUT      0.094572
    206 H173       68.9458   60.4786   49.7623 T4         2 LUT      0.093752
    207 H172       69.4111   62.1780   50.2813 T4         2 LUT      0.093752
    208 H171       69.0156   60.9062   51.5298 T4         2 LUT      0.093752
    209 H163       66.5811   60.0192   50.5869 T4         2 LUT      0.093752
    210 H162       66.3042   60.9548   52.0535 T4         2 LUT      0.093752
    211 H161       65.4569   61.3438   50.6886 T4         2 LUT      0.093752
    212 HO3        65.7778   65.4124   52.6315 Q1         2 LUT      0.300121
    213 H8         68.5498   63.7198   47.2140 U7         2 LUT      0.080784
    214 H7         67.6569   60.9815   47.6225 U6         2 LUT      0.042190
    215 H42        64.4171   63.3006   50.1117 U5         2 LUT      0.145166
    216 H41        64.7569   64.9370   49.8583 U5         2 LUT      0.145166
    217 H35        75.9552   65.5134   42.0723 T3         2 LUT      0.077919
    218 H34        76.9008   64.1095   39.3695 T2         2 LUT      0.073626
    219 H32        78.9466   64.4801   38.6086 T1         2 LUT      0.092510
    220 H31        80.3066   67.0763   39.6708 U9         2 LUT      0.070048
    221 H30        80.7360   65.1314   37.3228 U8         2 LUT      0.085442
    222 H3         65.6058   63.3698   52.1134 U3         2 LUT     -0.031596
    223 H28        82.4479   65.2228   35.9634 U7         2 LUT      0.084728
    224 H27        84.6185   67.2475   36.2227 U6         2 LUT      0.087291
    225 H26        84.4484   64.7170   34.6721 Q6         2 LUT      0.075325
    226 H24        85.1771   67.1422   31.6020 Q5         2 LUT      0.094482
    227 H23        87.4825   66.9831   32.8984 U3         2 LUT     -0.024869
    228 H22        67.6321   63.1599   52.4193 U2         2 LUT      0.127376
    229 H21        68.1282   63.9636   50.8472 U2         2 LUT      0.127376
    230 H15        74.7535   63.3242   40.0215 T3         2 LUT      0.093200
    231 H14        74.0034   64.6701   42.7029 T2         2 LUT      0.068865
    232 H12        72.0056   64.3103   43.7903 T1         2 LUT      0.095507
    233 H11        70.5053   61.6737   43.2878 U9         2 LUT      0.068930
    234 H10        70.4142   63.7193   45.5631 U8         2 LUT      0.083911
    235 H1         87.4389   64.8611   31.1499 Q1         2 LUT      0.297311
@<TRIPOS>BOND
    1     6     1 1
    2     7     2 1
    3     8     3 1
    4     9     4 1
    5    11     4 1
    6    12     6 1
    7    13     9 1
    8    16     9 1
    9    25     5 1
   10    25    16 1
   11    26    10 1
   12    26    17 1
   13    27    18 1
   14    28    14 1
   15    28    19 1
   16    29    12 1
   17    30    13 1
   18    31    24 1
   19    32     1 1
   20    32    25 1
   21    33    21 1
   22    33    26 1
   23    34    22 1
   24    34    27 1
   25    35    23 1
   26    35    28 1
   27    36    12 1
   28    36    24 1
   29    37    13 1
   30    37    15 1
   31    38    31 1
   32    39    20 1
   33    39    32 1
   34    40     2 1
   35    40    33 1
   36    41     3 1
   37    41    34 1
   38    42     4 1
   39    42    35 1
   40    43    38 1
   41    44     5 1
   42    44    17 1
   43    44    39 1
   44    45    10 1
   45    45    18 1
   46    45    40 1
   47    46    19 1
   48    46    41 1
   49    47    14 1
   50    47    16 1
   51    47    42 1
   52    48    38 1
   53    49    48 1
   54    50    49 1
   55    51    50 1
   56    52    51 1
   57    53    51 1
   58    54    53 1
   59    55    54 1
   60    56    55 1
   61    57    56 1
   62    58    56 1
   63    59    58 1
   64    60    59 1
   65    61    60 1
   66    62    61 1
   67    63    61 1
   68    64    27 1
   69    64    46 1
   70    65     5 1
   71    65    10 1
   72    65    64 1
   73    65    14 1
   74    66    23 1
   75    67    23 1
   76    68    23 1
   77    69    22 1
   78    70    22 1
   79    71    22 1
   80    72    21 1
   81    73    21 1
   82    74    21 1
   83    75    20 1
   84    76    20 1
   85    77    20 1
   86    78    15 1
   87    79    15 1
   88    80    15 1
   89    81     8 1
   90    82     8 1
   91    83     8 1
   92    84     7 1
   93    85     7 1
   94    86     6 1
   95    87     6 1
   96    88     3 1
   97    89     3 1
   98    90     1 1
   99    91     1 1
  100    92    63 1
  101    93    63 1
  102    94    63 1
  103    95    62 1
  104    96    62 1
  105    97    62 1
  106    98    60 1
  107    99    60 1
  108   100    59 1
  109   101    59 1
  110   102    58 1
  111   103    58 1
  112   104    57 1
  113   105    57 1
  114   106    57 1
  115   107    55 1
  116   108    55 1
  117   109    54 1
  118   110    54 1
  119   111    53 1
  120   112    53 1
  121   113    19 1
  122   114    18 1
  123   115    17 1
  124   116     9 1
  125   117     2 1
  126   118    52 1
  127   119    52 1
  128   120    52 1
  129   121    51 1
  130   122    50 1
  131   123    50 1
  132   124    49 1
  133   125    49 1
  134   126    48 1
  135   127    48 1
  136   128    43 1
  137   129    43 1
  138   130    43 1
  139   131    39 1
  140   132    32 1
  141   133    31 1
  142   134    61 1
  143   135    56 1
  144   136    24 1
  145   137    24 1
  146   139   138 1
  147   140   139 1
  148   141   140 1
  149   142   140 1
  150   143   142 1
  151   144   138 1
  152   144   143 1
  153   145   144 1
  154   146   145 1
  155   147   146 1
  156   148   147 1
  157   149   148 1
  158   150   149 1
  159   151   150 1
  160   152   151 1
  161   153   152 1
  162   154   138 1
  163   155   138 1
  164   156   143 1
  165   157   147 1
  166   158   151 1
  167   160   159 1
  168   161   160 1
  169   162   161 1
  170   163   161 1
  171   164   163 1
  172   165   159 1
  173   165   164 1
  174   166   165 1
  175   167   166 1
  176   168   167 1
  177   169   168 1
  178   170   169 1
  179   171   170 1
  180   172   171 1
  181   173   172 1
  182   174   153 1
  183   174   173 1
  184   175   159 1
  185   176   159 1
  186   177   164 1
  187   178   168 1
  188   179   172 1
  189   180   179 1
  190   181   179 1
  191   182   179 1
  192   183   178 1
  193   184   178 1
  194   185   178 1
  195   186   177 1
  196   187   177 1
  197   188   177 1
  198   189   176 1
  199   190   176 1
  200   191   176 1
  201   192   175 1
  202   193   175 1
  203   194   175 1
  204   195   160 1
  205   196   160 1
  206   197   158 1
  207   198   158 1
  208   199   158 1
  209   200   157 1
  210   201   157 1
  211   202   157 1
  212   203   156 1
  213   204   156 1
  214   205   156 1
  215   206   155 1
  216   207   155 1
  217   208   155 1
  218   209   154 1
  219   210   154 1
  220   211   154 1
  221   212   141 1
  222   213   146 1
  223   214   145 1
  224   215   142 1
  225   216   142 1
  226   217   174 1
  227   218   173 1
  228   219   171 1
  229   220   170 1
  230   221   169 1
  231   222   140 1
  232   223   167 1
  233   224   166 1
  234   225   165 1
  235   226   163 1
  236   227   161 1
  237   228   139 1
  238   229   139 1
  239   230   153 1
  240   231   152 1
  241   232   150 1
  242   233   149 1
  243   234   148 1
  244   235   162 1
  245   65    153 1
  246   65    174 1
@<TRIPOS>SUBSTRUCTURE
      1 CLA               1 ****               0 ****  **** 
      2 LUT             138 ****               0 ****  **** 
