@<TRIPOS>MOLECULE
Cpptraj generated mol2 file.
  235   246     2     0     0
SMALL
USER_CHARGES


@<TRIPOS>ATOM
      1 CAA        78.1007   58.0510   35.4853 a2         1 CLA     -0.055900
      2 CAB        77.3614   61.6629   44.4471 c8         1 CLA     -0.148500
      3 CAC        70.7714   57.2246   43.6359 a2         1 CLA     -0.012600
      4 CAD        74.1571   55.0395   36.3324 ck         1 CLA      0.398800
      5 NA         76.9447   58.2934   38.7239 ns         1 CLA     -0.225500
      6 CBA        79.2696   57.7441   34.6016 a2         1 CLA     -0.135000
      7 CBB        78.4345   61.7954   45.2920 c0         1 CLA     -0.395200
      8 CBC        70.9717   55.7227   43.8435 a3         1 CLA     -0.037700
      9 CBD        75.6212   55.6209   36.2255 a1         1 CLA     -0.053900
     10 NB         76.5149   59.8441   41.2972 nm         1 CLA     -0.295700
     11 OBD        73.7334   54.1503   35.5989 o2         1 CLA     -0.494600
     12 CGA        79.7972   56.2531   34.4762 c4         1 CLA      0.827000
     13 CGD        76.6123   54.5274   36.4143 c4         1 CLA      0.655300
     14 ND         74.1863   57.1768   39.1709 nm         1 CLA     -0.291600
     15 CED        77.4538   52.7956   37.8333 a3         1 CLA      0.005400
     16 CHA        75.8081   56.6877   37.3222 cs         1 CLA     -0.123800
     17 CHB        78.5706   59.6563   39.9711 aa         1 CLA     -0.291900
     18 CHC        75.0101   60.0363   43.2602 aa         1 CLA     -0.090400
     19 CHD        72.4594   56.7053   40.8023 aa         1 CLA     -0.052000
     20 CMA        80.3723   57.4682   38.5208 a3         1 CLA     -0.230700
     21 CMB        79.7234   61.6407   42.1144 a3         1 CLA     -0.180800
     22 CMC        72.3440   59.6710   44.8812 a3         1 CLA     -0.134000
     23 CMD        71.3046   54.8932   38.5571 a3         1 CLA     -0.141100
     24 C1         81.2254   54.6233   35.4356 a2         1 CLA      0.023000
     25 C1A        76.8999   57.5070   37.6565 ac         1 CLA     -0.015100
     26 C1B        77.7884   60.1931   41.0160 cr         1 CLA      0.054700
     27 C1C        73.9202   59.1774   42.8857 cn         1 CLA     -0.005600
     28 C1D        73.0720   56.4773   39.5153 ap         1 CLA     -0.047300
     29 O1A        79.5510   55.4619   33.6156 o2         1 CLA     -0.610800
     30 O1D        77.6988   54.4201   35.7973 o2         1 CLA     -0.558200
     31 C2         82.1199   54.5197   36.6030 c8         1 CLA     -0.325100
     32 C2A        78.2172   57.4901   36.9175 a1         1 CLA      0.098600
     33 C2B        78.3135   61.0610   42.0739 cb         1 CLA      0.088500
     34 C2C        72.6445   58.9356   43.6284 cb         1 CLA      0.053700
     35 C2D        72.6066   55.6528   38.4861 cb         1 CLA      0.058900
     36 O2A        80.6870   55.9736   35.4973 o1         1 CLA     -0.437200
     37 O2D        76.3374   53.6923   37.4775 o1         1 CLA     -0.357600
     38 C3         82.5475   53.4353   37.2942 c5         1 CLA      0.031200
     39 C3A        79.1974   58.2890   37.9223 a1         1 CLA      0.166800
     40 C3B        77.3341   61.0885   43.1218 cb         1 CLA      0.035000
     41 C3C        72.0055   57.8557   43.0433 cb         1 CLA     -0.089900
     42 C3D        73.6161   55.6946   37.5412 cb         1 CLA     -0.035900
     43 C4         81.6843   52.8639   38.4077 a3         1 CLA     -0.053300
     44 C4A        78.1983   58.7764   38.9702 ac         1 CLA      0.001800
     45 C4B        76.2185   60.2998   42.5589 cn         1 CLA     -0.020900
     46 C4C        72.8254   57.6118   41.8036 cr         1 CLA     -0.044400
     47 C4D        74.6069   56.5450   38.0536 c6         1 CLA     -0.046000
     48 C5         83.9194   52.8135   36.9579 a2         1 CLA     -0.070400
     49 C6         85.1131   53.8101   37.0060 a2         1 CLA      0.043900
     50 C7         85.4127   53.9956   38.4829 a2         1 CLA     -0.150000
     51 C8         86.5395   55.1112   38.7856 a1         1 CLA      0.064200
     52 C9         87.9040   54.6967   38.2957 a3         1 CLA     -0.259300
     53 C10        86.5531   55.5088   40.2678 a2         1 CLA     -0.071900
     54 C11        85.6753   56.8267   40.4519 a2         1 CLA      0.014500
     55 C12        85.4365   57.3377   41.8867 a2         1 CLA     -0.112100
     56 C13        84.8405   56.3951   43.0257 a1         1 CLA      0.089200
     57 C14        83.3191   56.1971   42.6556 a3         1 CLA     -0.239100
     58 C15        85.0241   56.9338   44.4776 a2         1 CLA     -0.102200
     59 C16        84.3297   58.2588   44.7277 a2         1 CLA      0.023900
     60 C17        84.3575   58.6700   46.2747 a2         1 CLA     -0.105700
     61 C18        84.0189   60.1924   46.5254 a1         1 CLA      0.206800
     62 C19        82.5382   60.5241   46.6094 a3         1 CLA     -0.280100
     63 C20        84.8553   60.8894   47.6565 a3         1 CLA     -0.280100
     64 NC         73.9066   58.3942   41.7377 nx         1 CLA     -0.309200
     65 MG         75.3039   58.5712   40.1328 mg         1 CLA      0.895000
     66 HMD3       70.5603   55.6702   38.5318 dc         1 CLA      0.064300
     67 HMD2       71.1841   54.2266   37.7615 dc         1 CLA      0.064300
     68 HMD1       71.2689   54.3569   39.4899 dc         1 CLA      0.064300
     69 HMC3       71.3913   59.4526   45.4066 dc         1 CLA      0.052100
     70 HMC2       73.2163   59.5410   45.5375 dc         1 CLA      0.052100
     71 HMC1       72.3599   60.7213   44.5908 dc         1 CLA      0.052100
     72 HMB3       79.9923   62.1021   41.1148 dc         1 CLA      0.063600
     73 HMB2       79.7387   62.3531   42.8846 dc         1 CLA      0.063600
     74 HMB1       80.3600   60.7882   42.3671 dc         1 CLA      0.063600
     75 HMA3       81.1850   57.4234   37.8005 dc         1 CLA      0.058300
     76 HMA2       80.6421   58.0067   39.3524 dc         1 CLA      0.058300
     77 HMA1       80.0126   56.5052   38.8921 dc         1 CLA      0.058300
     78 HED3       77.6054   52.0392   37.0085 dc         1 CLA      0.079300
     79 HED2       78.4635   53.2940   37.9183 dc         1 CLA      0.079300
     80 HED1       77.1728   52.3926   38.8233 dc         1 CLA      0.079300
     81 HBC3       70.1824   55.4076   44.5895 dc         1 CLA      0.016300
     82 HBC2       70.8304   55.2806   42.8556 dc         1 CLA      0.016300
     83 HBC1       71.9543   55.5504   44.2456 dc         1 CLA      0.016300
     84 HBB2       78.4260   62.3196   46.2988 da         1 CLA      0.183000
     85 HBB1       79.4440   61.4825   45.0088 da         1 CLA      0.183000
     86 HBA2       78.9445   58.1477   33.6807 dc         1 CLA      0.029400
     87 HBA1       80.1046   58.2803   34.9896 dc         1 CLA      0.029400
     88 HAC2       70.5429   57.7191   44.6093 dc         1 CLA      0.029300
     89 HAC1       69.9172   57.2365   42.9680 dc         1 CLA      0.029300
     90 HAA2       77.1897   57.6368   35.0530 dc         1 CLA      0.028700
     91 HAA1       77.8244   59.0683   35.4206 dc         1 CLA      0.028700
     92 H203       84.8280   61.9372   47.3809 dc         1 CLA      0.065600
     93 H202       84.5359   60.6399   48.6209 dc         1 CLA      0.065600
     94 H201       85.9113   60.7205   47.5894 dc         1 CLA      0.065600
     95 H193       81.9774   60.0647   45.7681 dc         1 CLA      0.065600
     96 H192       82.1461   60.1767   47.5737 dc         1 CLA      0.065600
     97 H191       82.4508   61.5766   46.4917 dc         1 CLA      0.065600
     98 H172       83.6942   57.9674   46.8277 dc         1 CLA      0.027600
     99 H171       85.3886   58.5606   46.6000 dc         1 CLA      0.027600
    100 H162       84.9244   59.0511   44.1622 dc         1 CLA      0.002900
    101 H161       83.2436   58.3365   44.5082 dc         1 CLA      0.002900
    102 H152       84.5937   56.1823   45.1138 dc         1 CLA      0.029100
    103 H151       86.0731   56.9322   44.6132 dc         1 CLA      0.029100
    104 H143       82.8499   57.2074   42.5191 dc         1 CLA      0.063600
    105 H142       83.2943   55.5845   41.7913 dc         1 CLA      0.063600
    106 H141       82.9058   55.6475   43.5131 dc         1 CLA      0.063600
    107 H122       86.3634   57.6463   42.1706 dc         1 CLA      0.032500
    108 H121       84.9199   58.2349   41.6972 dc         1 CLA      0.032500
    109 H112       86.2744   57.5975   39.9058 dc         1 CLA      0.006600
    110 H111       84.7298   56.7644   40.0221 dc         1 CLA      0.006600
    111 H102       86.2371   54.7174   40.8358 dc         1 CLA      0.024100
    112 H101       87.4922   55.8230   40.7022 dc         1 CLA      0.024100
    113 HHD        71.6442   56.1261   41.0917 da         1 CLA      0.174300
    114 HHC        74.8851   60.4445   44.2489 da         1 CLA      0.136800
    115 HHB        79.5432   60.0927   40.0378 da         1 CLA      0.138300
    116 HBD        75.6498   56.0640   35.2351 dc         1 CLA      0.107700
    117 HAB        76.3886   62.0374   44.7366 da         1 CLA      0.155200
    118 H93        88.2309   53.6837   38.6723 dc         1 CLA      0.069500
    119 H92        87.9616   54.6341   37.1748 dc         1 CLA      0.069500
    120 H91        88.6811   55.3492   38.6411 dc         1 CLA      0.069500
    121 H8         86.2030   56.0009   38.1784 dc         1 CLA      0.029300
    122 H72        84.5144   54.0918   39.1353 dc         1 CLA      0.044400
    123 H71        85.9263   53.0354   38.7105 dc         1 CLA      0.044400
    124 H62        85.9649   53.3615   36.4764 dc         1 CLA      0.015600
    125 H61        84.9646   54.7958   36.5628 dc         1 CLA      0.015600
    126 H52        84.0478   51.9200   37.4986 dc         1 CLA      0.033200
    127 H51        83.8301   52.6662   35.8712 dc         1 CLA      0.033200
    128 H43        82.2110   53.1388   39.3356 dc         1 CLA      0.037000
    129 H42        80.7454   53.3728   38.3904 dc         1 CLA      0.037000
    130 H41        81.5822   51.7899   38.2176 dc         1 CLA      0.037000
    131 H3A        79.6054   59.2087   37.3783 dc         1 CLA      0.041100
    132 H2A        78.5425   56.3847   36.9927 dc         1 CLA      0.083100
    133 H2         82.3487   55.4756   37.1025 da         1 CLA      0.180900
    134 H18        84.2899   60.7473   45.6474 dc         1 CLA     -0.003900
    135 H13        85.3348   55.4407   42.9897 dc         1 CLA      0.019700
    136 H12        80.3700   54.0106   35.5804 dc         1 CLA      0.120400
    137 H11        81.8206   54.3873   34.5511 dc         1 CLA      0.120400
    138 C1         68.0482   61.1940   50.8625 Z1         2 LUT      0.509236
    139 C2         66.9154   60.6257   51.6732 Z2         2 LUT     -0.434695
    140 C3         65.9808   61.6743   52.3139 Z3         2 LUT      0.437453
    141 O3         66.3077   61.7617   53.7229 S1         2 LUT     -0.547129
    142 C4         65.9995   63.0703   51.6166 Z4         2 LUT     -0.468603
    143 C5         66.3560   63.0446   50.1912 Z5         2 LUT      0.279246
    144 C6         67.3892   62.2102   49.8453 Z6         2 LUT     -0.305473
    145 C7         67.5759   61.9287   48.4276 Z7         2 LUT      0.069402
    146 C8         68.4983   62.4280   47.6309 Z8         2 LUT     -0.191631
    147 C9         69.0007   62.0943   46.2873 Z9         2 LUT      0.196698
    148 C10        69.8826   62.9563   45.6802 Y1         2 LUT     -0.208611
    149 C11        70.5809   62.8940   44.4211 Y2         2 LUT      0.030784
    150 C12        71.8163   63.4232   44.2608 Y3         2 LUT     -0.220316
    151 C13        72.8037   63.1421   43.1742 Y4         2 LUT      0.215937
    152 C14        74.0236   63.7740   43.2453 Y5         2 LUT     -0.185793
    153 C15        75.1054   63.7572   42.3314 Y6         2 LUT     -0.057835
    154 C16        68.8848   59.9335   50.4027 Y7         2 LUT     -0.405615
    155 C17        68.9436   61.8664   51.8510 Y7         2 LUT     -0.405615
    156 C18        65.3248   63.6446   49.2339 Y9         2 LUT     -0.369639
    157 C19        68.5841   60.6747   45.9244 W1         2 LUT     -0.333362
    158 C20        72.3993   62.2449   42.0952 W2         2 LUT     -0.323439
    159 C21        86.5830   64.9363   35.8837 Z1         2 LUT      0.406104
    160 C22        87.5187   64.5918   34.6648 Z2         2 LUT     -0.404965
    161 C23        87.5128   65.5423   33.4663 Z3         2 LUT      0.391255
    162 O23        88.1938   65.0194   32.3244 S1         2 LUT     -0.528210
    163 C24        86.1418   66.1753   33.1736 W6         2 LUT     -0.258361
    164 C25        85.1072   66.1575   34.0192 Z5         2 LUT      0.133546
    165 C26        85.1488   65.3901   35.3979 W8         2 LUT     -0.147008
    166 C27        84.3315   65.9892   36.5627 Z7         2 LUT      0.023843
    167 C28        83.2575   65.5199   37.1980 Z8         2 LUT     -0.216987
    168 C29        82.6563   65.9219   38.5347 Z9         2 LUT      0.206524
    169 C30        81.4916   65.4415   39.0032 Y1         2 LUT     -0.215556
    170 C31        80.5650   65.7483   40.0582 Y2         2 LUT      0.025142
    171 C32        79.3508   65.1822   40.3670 Y3         2 LUT     -0.212209
    172 C33        78.3031   65.5166   41.3033 Y4         2 LUT      0.240937
    173 C34        77.2160   64.6527   41.3941 Y5         2 LUT     -0.218862
    174 C35        76.1282   64.7192   42.3181 Y6         2 LUT     -0.023547
    175 C36        87.2919   66.1336   36.5732 Y7         2 LUT     -0.393485
    176 C37        86.7217   63.7333   36.9068 Y7         2 LUT     -0.393485
    177 C38        83.8359   66.9587   33.6164 Y9         2 LUT     -0.387526
    178 C39        83.3941   67.0744   39.2530 W1         2 LUT     -0.322618
    179 C40        78.4608   66.6817   42.2775 W2         2 LUT     -0.358472
    180 H403       78.1483   67.6349   41.8472 R7         2 LUT      0.097720
    181 H402       77.9542   66.5531   43.2196 R7         2 LUT      0.097720
    182 H401       79.4677   66.9081   42.5995 R7         2 LUT      0.097720
    183 H393       83.3613   67.9737   38.5932 R4         2 LUT      0.082505
    184 H392       82.9920   67.3127   40.2389 R4         2 LUT      0.082505
    185 H391       84.4396   66.8056   39.4353 R4         2 LUT      0.082505
    186 H383       83.1492   66.3659   32.9331 R1         2 LUT      0.104030
    187 H382       83.2233   67.2191   34.4766 R1         2 LUT      0.104030
    188 H381       84.0495   67.9230   33.0597 R1         2 LUT      0.104030
    189 H373       86.2565   64.0240   37.8255 T4         2 LUT      0.089537
    190 H372       86.2533   62.8881   36.6556 T4         2 LUT      0.089537
    191 H371       87.7905   63.4688   36.9366 T4         2 LUT      0.089537
    192 H363       88.4029   66.0688   36.7569 T4         2 LUT      0.089537
    193 H362       87.0549   67.0703   36.0197 T4         2 LUT      0.089537
    194 H361       86.8620   66.4557   37.4931 T4         2 LUT      0.089537
    195 H222       88.5651   64.7685   34.9661 U2         2 LUT      0.127376
    196 H221       87.1935   63.5589   34.2220 U2         2 LUT      0.127376
    197 H203       71.6649   61.4631   42.4572 R7         2 LUT      0.087068
    198 H202       71.7791   62.8696   41.4082 R7         2 LUT      0.087068
    199 H201       73.1950   61.6424   41.6074 R7         2 LUT      0.087068
    200 H193       67.5417   60.6734   45.6850 R4         2 LUT      0.089716
    201 H192       69.0957   60.3430   45.0132 R4         2 LUT      0.089716
    202 H191       68.8699   59.9414   46.6760 R4         2 LUT      0.089716
    203 H183       64.9996   62.9565   48.4691 R1         2 LUT      0.094572
    204 H182       64.3714   63.8445   49.7432 R1         2 LUT      0.094572
    205 H181       65.5784   64.6230   48.8268 R1         2 LUT      0.094572
    206 H173       69.3228   61.0687   52.5522 T4         2 LUT      0.093752
    207 H172       69.8537   62.4096   51.4225 T4         2 LUT      0.093752
    208 H171       68.5550   62.6648   52.4486 T4         2 LUT      0.093752
    209 H163       68.1340   59.3813   49.7653 T4         2 LUT      0.093752
    210 H162       69.7062   60.2317   49.7043 T4         2 LUT      0.093752
    211 H161       69.2485   59.2871   51.2467 T4         2 LUT      0.093752
    212 HO3        65.7237   62.3429   54.1690 Q1         2 LUT      0.300121
    213 H8         69.2483   63.0985   48.0568 U7         2 LUT      0.080784
    214 H7         67.0151   61.0597   48.0142 U6         2 LUT      0.042190
    215 H42        65.0249   63.6376   51.7208 U5         2 LUT      0.145166
    216 H41        66.6771   63.7577   52.1348 U5         2 LUT      0.145166
    217 H35        76.2145   65.5347   43.0579 T3         2 LUT      0.077919
    218 H34        77.1814   63.7951   40.7212 T2         2 LUT      0.073626
    219 H32        79.1831   64.3533   39.7311 T1         2 LUT      0.092510
    220 H31        80.8765   66.5218   40.7340 U9         2 LUT      0.070048
    221 H30        81.1288   64.6905   38.2961 U8         2 LUT      0.085442
    222 H3         65.0032   61.2299   52.3186 U3         2 LUT     -0.031596
    223 H28        82.8454   64.7713   36.5683 U7         2 LUT      0.084728
    224 H27        84.7965   66.9329   37.0312 U6         2 LUT      0.087291
    225 H26        84.6851   64.4051   35.2700 Q6         2 LUT      0.075325
    226 H24        86.1565   66.8976   32.3499 Q5         2 LUT      0.094482
    227 H23        88.0175   66.4924   33.6476 U3         2 LUT     -0.024869
    228 H22        66.1305   60.0870   51.0529 U2         2 LUT      0.127376
    229 H21        67.2753   59.8714   52.4234 U2         2 LUT      0.127376
    230 H15        75.1051   62.9608   41.5611 T3         2 LUT      0.093200
    231 H14        74.0490   64.4511   44.1027 T2         2 LUT      0.068865
    232 H12        72.1829   64.0348   45.0531 T1         2 LUT      0.095507
    233 H11        70.2415   62.0859   43.6862 U9         2 LUT      0.068930
    234 H10        70.1712   63.8479   46.3504 U8         2 LUT      0.083911
    235 H1         87.7129   64.2614   31.8433 Q1         2 LUT      0.297311
@<TRIPOS>BOND
    1     6     1 1
    2     7     2 1
    3     8     3 1
    4     9     4 1
    5    11     4 1
    6    12     6 1
    7    13     9 1
    8    16     9 1
    9    25     5 1
   10    25    16 1
   11    26    10 1
   12    26    17 1
   13    27    18 1
   14    28    14 1
   15    28    19 1
   16    29    12 1
   17    30    13 1
   18    31    24 1
   19    32     1 1
   20    32    25 1
   21    33    21 1
   22    33    26 1
   23    34    22 1
   24    34    27 1
   25    35    23 1
   26    35    28 1
   27    36    12 1
   28    36    24 1
   29    37    13 1
   30    37    15 1
   31    38    31 1
   32    39    20 1
   33    39    32 1
   34    40     2 1
   35    40    33 1
   36    41     3 1
   37    41    34 1
   38    42     4 1
   39    42    35 1
   40    43    38 1
   41    44     5 1
   42    44    17 1
   43    44    39 1
   44    45    10 1
   45    45    18 1
   46    45    40 1
   47    46    19 1
   48    46    41 1
   49    47    14 1
   50    47    16 1
   51    47    42 1
   52    48    38 1
   53    49    48 1
   54    50    49 1
   55    51    50 1
   56    52    51 1
   57    53    51 1
   58    54    53 1
   59    55    54 1
   60    56    55 1
   61    57    56 1
   62    58    56 1
   63    59    58 1
   64    60    59 1
   65    61    60 1
   66    62    61 1
   67    63    61 1
   68    64    27 1
   69    64    46 1
   70    65     5 1
   71    65    10 1
   72    65    64 1
   73    65    14 1
   74    66    23 1
   75    67    23 1
   76    68    23 1
   77    69    22 1
   78    70    22 1
   79    71    22 1
   80    72    21 1
   81    73    21 1
   82    74    21 1
   83    75    20 1
   84    76    20 1
   85    77    20 1
   86    78    15 1
   87    79    15 1
   88    80    15 1
   89    81     8 1
   90    82     8 1
   91    83     8 1
   92    84     7 1
   93    85     7 1
   94    86     6 1
   95    87     6 1
   96    88     3 1
   97    89     3 1
   98    90     1 1
   99    91     1 1
  100    92    63 1
  101    93    63 1
  102    94    63 1
  103    95    62 1
  104    96    62 1
  105    97    62 1
  106    98    60 1
  107    99    60 1
  108   100    59 1
  109   101    59 1
  110   102    58 1
  111   103    58 1
  112   104    57 1
  113   105    57 1
  114   106    57 1
  115   107    55 1
  116   108    55 1
  117   109    54 1
  118   110    54 1
  119   111    53 1
  120   112    53 1
  121   113    19 1
  122   114    18 1
  123   115    17 1
  124   116     9 1
  125   117     2 1
  126   118    52 1
  127   119    52 1
  128   120    52 1
  129   121    51 1
  130   122    50 1
  131   123    50 1
  132   124    49 1
  133   125    49 1
  134   126    48 1
  135   127    48 1
  136   128    43 1
  137   129    43 1
  138   130    43 1
  139   131    39 1
  140   132    32 1
  141   133    31 1
  142   134    61 1
  143   135    56 1
  144   136    24 1
  145   137    24 1
  146   139   138 1
  147   140   139 1
  148   141   140 1
  149   142   140 1
  150   143   142 1
  151   144   138 1
  152   144   143 1
  153   145   144 1
  154   146   145 1
  155   147   146 1
  156   148   147 1
  157   149   148 1
  158   150   149 1
  159   151   150 1
  160   152   151 1
  161   153   152 1
  162   154   138 1
  163   155   138 1
  164   156   143 1
  165   157   147 1
  166   158   151 1
  167   160   159 1
  168   161   160 1
  169   162   161 1
  170   163   161 1
  171   164   163 1
  172   165   159 1
  173   165   164 1
  174   166   165 1
  175   167   166 1
  176   168   167 1
  177   169   168 1
  178   170   169 1
  179   171   170 1
  180   172   171 1
  181   173   172 1
  182   174   153 1
  183   174   173 1
  184   175   159 1
  185   176   159 1
  186   177   164 1
  187   178   168 1
  188   179   172 1
  189   180   179 1
  190   181   179 1
  191   182   179 1
  192   183   178 1
  193   184   178 1
  194   185   178 1
  195   186   177 1
  196   187   177 1
  197   188   177 1
  198   189   176 1
  199   190   176 1
  200   191   176 1
  201   192   175 1
  202   193   175 1
  203   194   175 1
  204   195   160 1
  205   196   160 1
  206   197   158 1
  207   198   158 1
  208   199   158 1
  209   200   157 1
  210   201   157 1
  211   202   157 1
  212   203   156 1
  213   204   156 1
  214   205   156 1
  215   206   155 1
  216   207   155 1
  217   208   155 1
  218   209   154 1
  219   210   154 1
  220   211   154 1
  221   212   141 1
  222   213   146 1
  223   214   145 1
  224   215   142 1
  225   216   142 1
  226   217   174 1
  227   218   173 1
  228   219   171 1
  229   220   170 1
  230   221   169 1
  231   222   140 1
  232   223   167 1
  233   224   166 1
  234   225   165 1
  235   226   163 1
  236   227   161 1
  237   228   139 1
  238   229   139 1
  239   230   153 1
  240   231   152 1
  241   232   150 1
  242   233   149 1
  243   234   148 1
  244   235   162 1
  245   65    153 1
  246   65    174 1
@<TRIPOS>SUBSTRUCTURE
      1 CLA               1 ****               0 ****  **** 
      2 LUT             138 ****               0 ****  **** 
