@<TRIPOS>MOLECULE
Cpptraj generated mol2 file.
  235   246     2     0     0
SMALL
USER_CHARGES


@<TRIPOS>ATOM
      1 CAA        77.7796   58.0777   34.6931 a2         1 CLA     -0.055900
      2 CAB        77.2838   61.1930   43.8008 c8         1 CLA     -0.148500
      3 CAC        70.3852   57.0672   42.7123 a2         1 CLA     -0.012600
      4 CAD        73.7103   55.1084   35.4794 ck         1 CLA      0.398800
      5 NA         76.5681   58.1031   38.0683 ns         1 CLA     -0.225500
      6 CBA        79.0870   57.9517   33.9452 a2         1 CLA     -0.135000
      7 CBB        78.4243   61.0514   44.5207 c0         1 CLA     -0.395200
      8 CBC        70.5085   55.5418   42.9404 a3         1 CLA     -0.037700
      9 CBD        75.2392   55.6469   35.3095 a1         1 CLA     -0.053900
     10 NB         76.2577   59.6055   40.6730 nm         1 CLA     -0.295700
     11 OBD        73.1130   54.5064   34.6145 o2         1 CLA     -0.494600
     12 CGA        79.4989   56.5317   33.6206 c4         1 CLA      0.827000
     13 CGD        76.2026   54.4448   35.1486 c4         1 CLA      0.655300
     14 ND         73.7896   57.1820   38.3553 nm         1 CLA     -0.291600
     15 CED        77.1604   52.4461   36.2477 a3         1 CLA      0.005400
     16 CHA        75.4803   56.5721   36.4889 cs         1 CLA     -0.123800
     17 CHB        78.1779   59.6935   39.1409 aa         1 CLA     -0.291900
     18 CHC        74.7958   59.6363   42.5910 aa         1 CLA     -0.090400
     19 CHD        71.7980   56.9674   39.7801 aa         1 CLA     -0.052000
     20 CMA        79.8763   57.3715   37.7347 a3         1 CLA     -0.230700
     21 CMB        79.4881   61.2531   41.4887 a3         1 CLA     -0.180800
     22 CMC        72.3151   58.9909   44.4939 a3         1 CLA     -0.134000
     23 CMD        70.7282   55.0720   37.4418 a3         1 CLA     -0.141100
     24 C1         80.8099   54.6941   34.2787 a2         1 CLA      0.023000
     25 C1A        76.5017   57.4186   36.8504 ac         1 CLA     -0.015100
     26 C1B        77.5118   60.0421   40.3000 cr         1 CLA      0.054700
     27 C1C        73.6643   58.8883   42.2014 cn         1 CLA     -0.005600
     28 C1D        72.5033   56.6741   38.5835 ap         1 CLA     -0.047300
     29 O1A        79.0328   55.8454   32.7714 o2         1 CLA     -0.610800
     30 O1D        76.8715   54.2315   34.1521 o2         1 CLA     -0.558200
     31 C2         81.6829   54.4291   35.4804 c8         1 CLA     -0.325100
     32 C2A        77.8123   57.4316   36.1196 a1         1 CLA      0.098600
     33 C2B        78.1037   60.6847   41.4503 cb         1 CLA      0.088500
     34 C2C        72.4772   58.5954   43.0031 cb         1 CLA      0.053700
     35 C2D        72.0697   55.7678   37.4967 cb         1 CLA      0.058900
     36 O2A        80.5449   56.0894   34.4247 o1         1 CLA     -0.437200
     37 O2D        76.3700   53.6874   36.3290 o1         1 CLA     -0.357600
     38 C3         81.6770   53.3697   36.3073 c5         1 CLA      0.031200
     39 C3A        78.7944   58.2065   37.0857 a1         1 CLA      0.166800
     40 C3B        77.1277   60.7039   42.4706 cb         1 CLA      0.035000
     41 C3C        71.6776   57.7527   42.2047 cb         1 CLA     -0.089900
     42 C3D        73.2030   55.7197   36.6846 cb         1 CLA     -0.035900
     43 C4         80.8118   53.4766   37.5253 a3         1 CLA     -0.053300
     44 C4A        77.7957   58.7009   38.1815 ac         1 CLA      0.001800
     45 C4B        75.9504   60.0102   41.9613 cn         1 CLA     -0.020900
     46 C4C        72.3049   57.6922   40.9349 cr         1 CLA     -0.044400
     47 C4D        74.2683   56.5136   37.2336 c6         1 CLA     -0.046000
     48 C5         82.6964   52.2909   36.2622 a2         1 CLA     -0.070400
     49 C6         84.1498   52.9113   36.0664 a2         1 CLA      0.043900
     50 C7         84.5993   53.6500   37.2982 a2         1 CLA     -0.150000
     51 C8         85.5669   54.9135   37.1886 a1         1 CLA      0.064200
     52 C9         87.0840   54.4818   36.9698 a3         1 CLA     -0.259300
     53 C10        85.5092   55.8667   38.5029 a2         1 CLA     -0.071900
     54 C11        84.1801   56.6574   38.6011 a2         1 CLA      0.014500
     55 C12        84.3698   57.7975   39.6424 a2         1 CLA     -0.112100
     56 C13        84.8448   57.3135   41.0639 a1         1 CLA      0.089200
     57 C14        83.7933   56.2838   41.6328 a3         1 CLA     -0.239100
     58 C15        85.0610   58.4517   42.0847 a2         1 CLA     -0.102200
     59 C16        83.8696   59.2927   42.5520 a2         1 CLA      0.023900
     60 C17        84.3511   60.1787   43.6998 a2         1 CLA     -0.105700
     61 C18        83.2656   61.0109   44.4887 a1         1 CLA      0.206800
     62 C19        82.1525   60.3357   45.3970 a3         1 CLA     -0.280100
     63 C20        83.8940   62.1170   45.3362 a3         1 CLA     -0.280100
     64 NC         73.5405   58.3335   40.9512 nx         1 CLA     -0.309200
     65 MG         75.0104   58.3794   39.4120 mg         1 CLA      0.895000
     66 HMD3       70.5818   54.5088   38.3621 dc         1 CLA      0.064300
     67 HMD2       69.9275   55.7611   37.3569 dc         1 CLA      0.064300
     68 HMD1       70.7217   54.3294   36.6787 dc         1 CLA      0.064300
     69 HMC3       73.2994   58.9504   44.9483 dc         1 CLA      0.052100
     70 HMC2       71.9549   60.0393   44.6301 dc         1 CLA      0.052100
     71 HMC1       71.6217   58.3140   44.9973 dc         1 CLA      0.052100
     72 HMB3       79.7078   61.7694   40.5551 dc         1 CLA      0.063600
     73 HMB2       79.3030   62.0016   42.2608 dc         1 CLA      0.063600
     74 HMB1       80.1910   60.5556   41.8712 dc         1 CLA      0.063600
     75 HMA3       79.3841   56.6467   38.3333 dc         1 CLA      0.058300
     76 HMA2       80.5962   56.9927   37.0053 dc         1 CLA      0.058300
     77 HMA1       80.3972   57.8851   38.5620 dc         1 CLA      0.058300
     78 HED3       76.5629   51.7874   35.6770 dc         1 CLA      0.079300
     79 HED2       78.0574   52.5152   35.7144 dc         1 CLA      0.079300
     80 HED1       77.1896   51.8840   37.2400 dc         1 CLA      0.079300
     81 HBC3       70.6402   55.0262   42.0596 dc         1 CLA      0.016300
     82 HBC2       71.3476   55.3405   43.6273 dc         1 CLA      0.016300
     83 HBC1       69.6024   55.1144   43.3702 dc         1 CLA      0.016300
     84 HBB2       78.4825   61.5453   45.5149 da         1 CLA      0.183000
     85 HBB1       79.3642   60.5281   44.1818 da         1 CLA      0.183000
     86 HBA2       78.8690   58.4559   32.9883 dc         1 CLA      0.029400
     87 HBA1       79.8990   58.4221   34.4979 dc         1 CLA      0.029400
     88 HAC2       70.0750   57.4458   43.6282 dc         1 CLA      0.029300
     89 HAC1       69.6201   57.2123   41.9812 dc         1 CLA      0.029300
     90 HAA2       77.0524   57.5740   34.1227 dc         1 CLA      0.028700
     91 HAA1       77.5309   59.1053   34.8782 dc         1 CLA      0.028700
     92 H203       83.1647   62.7334   45.7627 dc         1 CLA      0.065600
     93 H202       84.4321   61.6603   46.1705 dc         1 CLA      0.065600
     94 H201       84.6777   62.6433   44.7432 dc         1 CLA      0.065600
     95 H193       82.8059   59.9581   46.1854 dc         1 CLA      0.065600
     96 H192       81.4043   60.8971   45.8898 dc         1 CLA      0.065600
     97 H191       81.6611   59.6338   44.7917 dc         1 CLA      0.065600
     98 H172       84.9892   59.7475   44.4583 dc         1 CLA      0.027600
     99 H171       84.9343   60.9597   43.2126 dc         1 CLA      0.027600
    100 H162       83.4616   59.8449   41.6866 dc         1 CLA      0.002900
    101 H161       83.0857   58.6173   42.9457 dc         1 CLA      0.002900
    102 H152       85.5448   57.9659   42.9369 dc         1 CLA      0.029100
    103 H151       85.8621   59.1460   41.6953 dc         1 CLA      0.029100
    104 H143       83.7383   56.2856   42.7094 dc         1 CLA      0.063600
    105 H142       82.8482   56.6706   41.2503 dc         1 CLA      0.063600
    106 H141       84.2146   55.3329   41.2801 dc         1 CLA      0.063600
    107 H122       85.1881   58.4122   39.2579 dc         1 CLA      0.032500
    108 H121       83.4750   58.3834   39.7226 dc         1 CLA      0.032500
    109 H112       83.9012   57.1149   37.6794 dc         1 CLA      0.006600
    110 H111       83.4645   56.0452   39.0371 dc         1 CLA      0.006600
    111 H102       85.8158   55.3736   39.4321 dc         1 CLA      0.024100
    112 H101       86.2781   56.6334   38.5089 dc         1 CLA      0.024100
    113 HHD        70.8564   56.5298   39.9413 da         1 CLA      0.174300
    114 HHC        74.6859   60.0610   43.6115 da         1 CLA      0.136800
    115 HHB        79.1728   60.1243   39.0602 da         1 CLA      0.138300
    116 HBD        75.3206   56.2779   34.4438 dc         1 CLA      0.107700
    117 HAB        76.4698   61.7042   44.2705 da         1 CLA      0.155200
    118 H93        87.3712   53.7656   37.7281 dc         1 CLA      0.069500
    119 H92        87.1906   54.0302   35.9673 dc         1 CLA      0.069500
    120 H91        87.7344   55.4105   37.0141 dc         1 CLA      0.069500
    121 H8         85.1964   55.4286   36.2868 dc         1 CLA      0.029300
    122 H72        83.7798   53.9622   37.8630 dc         1 CLA      0.044400
    123 H71        85.0180   52.9696   37.9593 dc         1 CLA      0.044400
    124 H62        84.8112   52.0910   35.8962 dc         1 CLA      0.015600
    125 H61        84.1377   53.5007   35.1547 dc         1 CLA      0.015600
    126 H52        82.5842   51.6225   37.1545 dc         1 CLA      0.033200
    127 H51        82.5235   51.6340   35.4684 dc         1 CLA      0.033200
    128 H43        81.2650   53.9871   38.3211 dc         1 CLA      0.037000
    129 H42        79.8932   54.0508   37.3582 dc         1 CLA      0.037000
    130 H41        80.6247   52.4216   37.7894 dc         1 CLA      0.037000
    131 H3A        79.3529   58.9641   36.6479 dc         1 CLA      0.041100
    132 H2A        78.1929   56.4086   35.9753 dc         1 CLA      0.083100
    133 H2         82.2553   55.2761   35.9072 da         1 CLA      0.180900
    134 H18        82.7222   61.4762   43.6452 dc         1 CLA     -0.003900
    135 H13        85.8376   56.8525   41.0483 dc         1 CLA      0.019700
    136 H12        79.9262   54.0784   34.3574 dc         1 CLA      0.120400
    137 H11        81.2680   54.4008   33.3515 dc         1 CLA      0.120400
    138 C1         67.9600   60.7559   50.1271 Z1         2 LUT      0.509236
    139 C2         67.6658   61.5625   51.3762 Z2         2 LUT     -0.434695
    140 C3         66.2260   61.9448   51.5444 Z3         2 LUT      0.437453
    141 O3         66.0696   62.5846   52.8004 S1         2 LUT     -0.547129
    142 C4         65.7860   62.8050   50.3030 Z4         2 LUT     -0.468603
    143 C5         66.3571   62.3084   49.0269 Z5         2 LUT      0.279246
    144 C6         67.1464   61.2239   48.9194 Z6         2 LUT     -0.305473
    145 C7         67.7840   60.8431   47.6303 Z7         2 LUT      0.069402
    146 C8         68.4055   61.5607   46.6389 Z8         2 LUT     -0.191631
    147 C9         68.9659   61.2281   45.2977 Z9         2 LUT      0.196698
    148 C10        69.8095   62.1286   44.6511 Y1         2 LUT     -0.208611
    149 C11        70.4416   62.0690   43.3686 Y2         2 LUT      0.030784
    150 C12        71.6039   62.8033   43.0360 Y3         2 LUT     -0.220316
    151 C13        72.5298   62.6689   41.8523 Y4         2 LUT      0.215937
    152 C14        73.7034   63.3604   41.9230 Y5         2 LUT     -0.185793
    153 C15        74.8275   63.3948   41.0523 Y6         2 LUT     -0.057835
    154 C16        67.5948   59.2710   50.5142 Y7         2 LUT     -0.405615
    155 C17        69.4531   60.6371   49.9594 Y7         2 LUT     -0.405615
    156 C18        65.8204   63.1945   47.9151 Y9         2 LUT     -0.369639
    157 C19        68.5252   59.8899   44.7602 W1         2 LUT     -0.333362
    158 C20        71.9838   61.9760   40.6289 W2         2 LUT     -0.323439
    159 C21        86.5182   64.8176   35.3873 Z1         2 LUT      0.406104
    160 C22        87.2651   64.1161   34.2071 Z2         2 LUT     -0.404965
    161 C23        87.4101   64.8926   32.9766 Z3         2 LUT      0.391255
    162 O23        87.8887   64.0020   31.9770 S1         2 LUT     -0.528210
    163 C24        86.1140   65.6382   32.6925 W6         2 LUT     -0.258361
    164 C25        85.0398   65.8085   33.5130 Z5         2 LUT      0.133546
    165 C26        85.0358   65.2160   34.8867 W8         2 LUT     -0.147008
    166 C27        84.1501   65.9527   35.9941 Z7         2 LUT      0.023843
    167 C28        83.0474   65.5303   36.5641 Z8         2 LUT     -0.216987
    168 C29        82.4248   65.9486   37.8304 Z9         2 LUT      0.206524
    169 C30        81.3556   65.1681   38.2840 Y1         2 LUT     -0.215556
    170 C31        80.5705   65.3766   39.4928 Y2         2 LUT      0.025142
    171 C32        79.4242   64.5964   39.6613 Y3         2 LUT     -0.212209
    172 C33        78.4300   64.7353   40.6831 Y4         2 LUT      0.240937
    173 C34        77.2375   64.1238   40.5245 Y5         2 LUT     -0.218862
    174 C35        76.0818   63.9940   41.3857 Y6         2 LUT     -0.023547
    175 C36        87.3594   66.0962   35.8412 Y7         2 LUT     -0.393485
    176 C37        86.5698   63.8008   36.5693 Y7         2 LUT     -0.393485
    177 C38        83.8083   66.4529   32.9990 Y9         2 LUT     -0.387526
    178 C39        82.8106   67.1717   38.5797 W1         2 LUT     -0.322618
    179 C40        78.5671   65.8457   41.7414 W2         2 LUT     -0.358472
    180 H403       79.6110   66.2509   41.8770 R7         2 LUT      0.097720
    181 H402       77.9510   66.7544   41.6269 R7         2 LUT      0.097720
    182 H401       78.2258   65.5765   42.7491 R7         2 LUT      0.097720
    183 H393       83.8360   67.0200   39.0929 R4         2 LUT      0.082505
    184 H392       82.8736   67.9586   37.8845 R4         2 LUT      0.082505
    185 H391       82.1054   67.5738   39.2581 R4         2 LUT      0.082505
    186 H383       82.9803   65.7351   32.8822 R1         2 LUT      0.104030
    187 H382       83.6155   67.2298   33.7021 R1         2 LUT      0.104030
    188 H381       84.0114   67.0225   32.0959 R1         2 LUT      0.104030
    189 H373       86.1479   64.2483   37.5288 T4         2 LUT      0.089537
    190 H372       85.9582   62.8734   36.3742 T4         2 LUT      0.089537
    191 H371       87.6097   63.5840   36.7603 T4         2 LUT      0.089537
    192 H363       88.2877   65.8880   36.3015 T4         2 LUT      0.089537
    193 H362       87.6131   66.8237   35.0373 T4         2 LUT      0.089537
    194 H361       86.6868   66.7295   36.5683 T4         2 LUT      0.089537
    195 H222       88.2572   63.7828   34.5135 U2         2 LUT      0.127376
    196 H221       86.7974   63.1843   33.9803 U2         2 LUT      0.127376
    197 H203       72.2016   60.9473   40.6149 R7         2 LUT      0.087068
    198 H202       70.9080   62.1275   40.4558 R7         2 LUT      0.087068
    199 H201       72.3834   62.3187   39.6727 R7         2 LUT      0.087068
    200 H193       67.6133   59.5199   45.2615 R4         2 LUT      0.089716
    201 H192       68.2726   60.0366   43.7142 R4         2 LUT      0.089716
    202 H191       69.2739   59.1454   44.7230 R4         2 LUT      0.089716
    203 H183       64.9078   63.7125   48.0762 R1         2 LUT      0.094572
    204 H182       66.5757   63.9661   47.7386 R1         2 LUT      0.094572
    205 H181       65.6874   62.7263   46.9121 R1         2 LUT      0.094572
    206 H173       69.8824   59.8861   49.3867 T4         2 LUT      0.093752
    207 H172       69.7670   61.5677   49.4207 T4         2 LUT      0.093752
    208 H171       70.0524   60.6652   50.8599 T4         2 LUT      0.093752
    209 H163       67.8927   58.9803   51.5221 T4         2 LUT      0.093752
    210 H162       66.5613   59.1872   50.6086 T4         2 LUT      0.093752
    211 H161       67.9612   58.5478   49.7665 T4         2 LUT      0.093752
    212 HO3        65.5454   61.9533   53.3742 Q1         2 LUT      0.300121
    213 H8         68.3777   62.6548   46.8442 U7         2 LUT      0.080784
    214 H7         67.8643   59.7768   47.4273 U6         2 LUT      0.042190
    215 H42        64.6831   62.8713   50.2547 U5         2 LUT      0.145166
    216 H41        66.1445   63.8532   50.4441 U5         2 LUT      0.145166
    217 H35        76.2077   64.5190   42.3878 T3         2 LUT      0.077919
    218 H34        77.0916   63.5500   39.5969 T2         2 LUT      0.073626
    219 H32        79.1483   63.8598   38.9955 T1         2 LUT      0.092510
    220 H31        80.8182   66.1547   40.2084 U9         2 LUT      0.070048
    221 H30        81.1232   64.2653   37.7712 U8         2 LUT      0.085442
    222 H3         65.6404   60.9504   51.5084 U3         2 LUT     -0.031596
    223 H28        82.5719   64.6537   36.0329 U7         2 LUT      0.084728
    224 H27        84.6261   66.8379   36.4308 U6         2 LUT      0.087291
    225 H26        84.7861   64.1646   34.6158 Q6         2 LUT      0.075325
    226 H24        86.0244   66.1847   31.7332 Q5         2 LUT      0.094482
    227 H23        88.2472   65.5763   33.2537 U3         2 LUT     -0.024869
    228 H22        67.9364   61.1636   52.3802 U2         2 LUT      0.127376
    229 H21        68.2243   62.4840   51.3102 U2         2 LUT      0.127376
    230 H15        74.7060   62.9340   40.0976 T3         2 LUT      0.093200
    231 H14        73.8258   64.0393   42.8361 T2         2 LUT      0.068865
    232 H12        71.9970   63.3901   43.8601 T1         2 LUT      0.095507
    233 H11        70.1212   61.3415   42.6813 U9         2 LUT      0.068930
    234 H10        70.0672   63.0706   45.1474 U8         2 LUT      0.083911
    235 H1         88.0254   64.4075   31.1567 Q1         2 LUT      0.297311
@<TRIPOS>BOND
    1     6     1 1
    2     7     2 1
    3     8     3 1
    4     9     4 1
    5    11     4 1
    6    12     6 1
    7    13     9 1
    8    16     9 1
    9    25     5 1
   10    25    16 1
   11    26    10 1
   12    26    17 1
   13    27    18 1
   14    28    14 1
   15    28    19 1
   16    29    12 1
   17    30    13 1
   18    31    24 1
   19    32     1 1
   20    32    25 1
   21    33    21 1
   22    33    26 1
   23    34    22 1
   24    34    27 1
   25    35    23 1
   26    35    28 1
   27    36    12 1
   28    36    24 1
   29    37    13 1
   30    37    15 1
   31    38    31 1
   32    39    20 1
   33    39    32 1
   34    40     2 1
   35    40    33 1
   36    41     3 1
   37    41    34 1
   38    42     4 1
   39    42    35 1
   40    43    38 1
   41    44     5 1
   42    44    17 1
   43    44    39 1
   44    45    10 1
   45    45    18 1
   46    45    40 1
   47    46    19 1
   48    46    41 1
   49    47    14 1
   50    47    16 1
   51    47    42 1
   52    48    38 1
   53    49    48 1
   54    50    49 1
   55    51    50 1
   56    52    51 1
   57    53    51 1
   58    54    53 1
   59    55    54 1
   60    56    55 1
   61    57    56 1
   62    58    56 1
   63    59    58 1
   64    60    59 1
   65    61    60 1
   66    62    61 1
   67    63    61 1
   68    64    27 1
   69    64    46 1
   70    65     5 1
   71    65    10 1
   72    65    64 1
   73    65    14 1
   74    66    23 1
   75    67    23 1
   76    68    23 1
   77    69    22 1
   78    70    22 1
   79    71    22 1
   80    72    21 1
   81    73    21 1
   82    74    21 1
   83    75    20 1
   84    76    20 1
   85    77    20 1
   86    78    15 1
   87    79    15 1
   88    80    15 1
   89    81     8 1
   90    82     8 1
   91    83     8 1
   92    84     7 1
   93    85     7 1
   94    86     6 1
   95    87     6 1
   96    88     3 1
   97    89     3 1
   98    90     1 1
   99    91     1 1
  100    92    63 1
  101    93    63 1
  102    94    63 1
  103    95    62 1
  104    96    62 1
  105    97    62 1
  106    98    60 1
  107    99    60 1
  108   100    59 1
  109   101    59 1
  110   102    58 1
  111   103    58 1
  112   104    57 1
  113   105    57 1
  114   106    57 1
  115   107    55 1
  116   108    55 1
  117   109    54 1
  118   110    54 1
  119   111    53 1
  120   112    53 1
  121   113    19 1
  122   114    18 1
  123   115    17 1
  124   116     9 1
  125   117     2 1
  126   118    52 1
  127   119    52 1
  128   120    52 1
  129   121    51 1
  130   122    50 1
  131   123    50 1
  132   124    49 1
  133   125    49 1
  134   126    48 1
  135   127    48 1
  136   128    43 1
  137   129    43 1
  138   130    43 1
  139   131    39 1
  140   132    32 1
  141   133    31 1
  142   134    61 1
  143   135    56 1
  144   136    24 1
  145   137    24 1
  146   139   138 1
  147   140   139 1
  148   141   140 1
  149   142   140 1
  150   143   142 1
  151   144   138 1
  152   144   143 1
  153   145   144 1
  154   146   145 1
  155   147   146 1
  156   148   147 1
  157   149   148 1
  158   150   149 1
  159   151   150 1
  160   152   151 1
  161   153   152 1
  162   154   138 1
  163   155   138 1
  164   156   143 1
  165   157   147 1
  166   158   151 1
  167   160   159 1
  168   161   160 1
  169   162   161 1
  170   163   161 1
  171   164   163 1
  172   165   159 1
  173   165   164 1
  174   166   165 1
  175   167   166 1
  176   168   167 1
  177   169   168 1
  178   170   169 1
  179   171   170 1
  180   172   171 1
  181   173   172 1
  182   174   153 1
  183   174   173 1
  184   175   159 1
  185   176   159 1
  186   177   164 1
  187   178   168 1
  188   179   172 1
  189   180   179 1
  190   181   179 1
  191   182   179 1
  192   183   178 1
  193   184   178 1
  194   185   178 1
  195   186   177 1
  196   187   177 1
  197   188   177 1
  198   189   176 1
  199   190   176 1
  200   191   176 1
  201   192   175 1
  202   193   175 1
  203   194   175 1
  204   195   160 1
  205   196   160 1
  206   197   158 1
  207   198   158 1
  208   199   158 1
  209   200   157 1
  210   201   157 1
  211   202   157 1
  212   203   156 1
  213   204   156 1
  214   205   156 1
  215   206   155 1
  216   207   155 1
  217   208   155 1
  218   209   154 1
  219   210   154 1
  220   211   154 1
  221   212   141 1
  222   213   146 1
  223   214   145 1
  224   215   142 1
  225   216   142 1
  226   217   174 1
  227   218   173 1
  228   219   171 1
  229   220   170 1
  230   221   169 1
  231   222   140 1
  232   223   167 1
  233   224   166 1
  234   225   165 1
  235   226   163 1
  236   227   161 1
  237   228   139 1
  238   229   139 1
  239   230   153 1
  240   231   152 1
  241   232   150 1
  242   233   149 1
  243   234   148 1
  244   235   162 1
  245   65    153 1
  246   65    174 1
@<TRIPOS>SUBSTRUCTURE
      1 CLA               1 ****               0 ****  **** 
      2 LUT             138 ****               0 ****  **** 
