@<TRIPOS>MOLECULE
Cpptraj generated mol2 file.
  235   246     2     0     0
SMALL
USER_CHARGES


@<TRIPOS>ATOM
      1 CAA        78.0319   57.0456   33.7253 a2         1 CLA     -0.055900
      2 CAB        78.8795   61.5823   42.3047 c8         1 CLA     -0.148500
      3 CAC        71.6842   57.8493   42.4562 a2         1 CLA     -0.012600
      4 CAD        73.5785   55.1928   35.0508 ck         1 CLA      0.398800
      5 NA         77.1506   57.7726   37.1259 ns         1 CLA     -0.225500
      6 CBA        79.2099   56.5064   32.8617 a2         1 CLA     -0.135000
      7 CBB        80.0891   61.9318   42.6904 c0         1 CLA     -0.395200
      8 CBC        71.7836   56.3566   42.7785 a3         1 CLA     -0.037700
      9 CBD        75.0944   55.2699   34.8643 a1         1 CLA     -0.053900
     10 NB         77.3243   59.5353   39.5976 nm         1 CLA     -0.295700
     11 OBD        72.8046   54.5890   34.3336 o2         1 CLA     -0.494600
     12 CGA        79.2397   54.9847   32.7066 c4         1 CLA      0.827000
     13 CGD        75.7166   53.8563   34.7487 c4         1 CLA      0.655300
     14 ND         74.2768   57.2893   37.8239 nm         1 CLA     -0.291600
     15 CED        75.9777   51.8628   35.8928 a3         1 CLA      0.005400
     16 CHA        75.5922   56.3076   35.8686 cs         1 CLA     -0.123800
     17 CHB        79.0545   58.9216   37.9950 aa         1 CLA     -0.291900
     18 CHC        76.0886   60.0512   41.6564 aa         1 CLA     -0.090400
     19 CHD        72.4935   57.5334   39.4978 aa         1 CLA     -0.052000
     20 CMA        80.4061   56.4135   36.5491 a3         1 CLA     -0.230700
     21 CMB        80.7132   60.8578   39.5912 a3         1 CLA     -0.180800
     22 CMC        73.8880   59.6677   43.9225 a3         1 CLA     -0.134000
     23 CMD        70.8178   55.8792   37.3729 a3         1 CLA     -0.141100
     24 C1         79.8630   52.9628   33.7167 a2         1 CLA      0.023000
     25 C1A        76.8764   56.9157   36.1071 ac         1 CLA     -0.015100
     26 C1B        78.5565   59.6322   39.1275 cr         1 CLA      0.054700
     27 C1C        74.8986   59.3046   41.4943 cn         1 CLA     -0.005600
     28 C1D        72.9826   57.0573   38.2363 ap         1 CLA     -0.047300
     29 O1A        78.7960   54.3389   31.7681 o2         1 CLA     -0.610800
     30 O1D        76.4602   53.5454   33.8276 o2         1 CLA     -0.558200
     31 C2         80.4291   52.4605   35.0546 c8         1 CLA     -0.325100
     32 C2A        78.1672   56.6253   35.2103 a1         1 CLA      0.098600
     33 C2B        79.3440   60.4908   39.8902 cb         1 CLA      0.088500
     34 C2C        73.8317   59.1825   42.5006 cb         1 CLA      0.053700
     35 C2D        72.2452   56.3129   37.2275 cb         1 CLA      0.058900
     36 O2A        79.9447   54.4001   33.7694 o1         1 CLA     -0.437200
     37 O2D        75.3594   53.1919   35.8459 o1         1 CLA     -0.357600
     38 C3         81.1906   51.4035   35.2264 c5         1 CLA      0.031200
     39 C3A        79.2450   57.3809   36.0569 a1         1 CLA      0.166800
     40 C3B        78.5409   60.8349   41.0492 cb         1 CLA      0.035000
     41 C3C        72.8862   58.3278   41.8575 cb         1 CLA     -0.089900
     42 C3D        73.2504   55.9755   36.2666 cb         1 CLA     -0.035900
     43 C4         80.6282   50.0505   35.5935 a3         1 CLA     -0.053300
     44 C4A        78.4757   58.1448   37.1075 ac         1 CLA      0.001800
     45 C4B        77.2478   60.1598   40.8416 cn         1 CLA     -0.020900
     46 C4C        73.2265   58.1936   40.4887 cr         1 CLA     -0.044400
     47 C4D        74.4587   56.5976   36.7051 c6         1 CLA     -0.046000
     48 C5         82.6623   51.2942   34.7854 a2         1 CLA     -0.070400
     49 C6         83.5024   52.5146   35.0429 a2         1 CLA      0.043900
     50 C7         83.8285   52.7416   36.5331 a2         1 CLA     -0.150000
     51 C8         84.6883   54.0010   37.0199 a1         1 CLA      0.064200
     52 C9         86.1283   53.9649   36.4133 a3         1 CLA     -0.259300
     53 C10        84.7062   54.2047   38.6255 a2         1 CLA     -0.071900
     54 C11        83.3720   54.7747   39.0883 a2         1 CLA      0.014500
     55 C12        83.4337   55.4525   40.5374 a2         1 CLA     -0.112100
     56 C13        82.0832   55.8480   41.1800 a1         1 CLA      0.089200
     57 C14        81.3116   56.9934   40.3873 a3         1 CLA     -0.239100
     58 C15        82.2077   56.1236   42.6471 a2         1 CLA     -0.102200
     59 C16        82.6590   57.5468   43.1084 a2         1 CLA      0.023900
     60 C17        82.8600   57.6184   44.6020 a2         1 CLA     -0.105700
     61 C18        83.4015   58.9177   45.2391 a1         1 CLA      0.206800
     62 C19        82.2455   60.0578   45.1011 a3         1 CLA     -0.280100
     63 C20        83.6688   58.7336   46.8014 a3         1 CLA     -0.280100
     64 NC         74.5212   58.6146   40.3378 nx         1 CLA     -0.309200
     65 MG         75.7484   58.3097   38.6563 mg         1 CLA      0.895000
     66 HMD3       70.6102   55.7184   38.4689 dc         1 CLA      0.064300
     67 HMD2       70.1441   56.6436   36.9701 dc         1 CLA      0.064300
     68 HMD1       70.8157   54.9931   36.8049 dc         1 CLA      0.064300
     69 HMC3       73.1549   60.4340   44.1302 dc         1 CLA      0.052100
     70 HMC2       73.6420   58.8762   44.6240 dc         1 CLA      0.052100
     71 HMC1       74.9057   60.1087   44.1665 dc         1 CLA      0.052100
     72 HMB3       80.8438   60.8070   38.5100 dc         1 CLA      0.063600
     73 HMB2       81.0035   61.8249   39.8977 dc         1 CLA      0.063600
     74 HMB1       81.3714   60.0891   40.0313 dc         1 CLA      0.063600
     75 HMA3       80.6603   55.7477   35.7010 dc         1 CLA      0.058300
     76 HMA2       81.1991   57.0011   36.9524 dc         1 CLA      0.058300
     77 HMA1       80.1332   55.8669   37.3772 dc         1 CLA      0.058300
     78 HED3       75.8674   51.2934   35.0461 dc         1 CLA      0.079300
     79 HED2       77.0091   51.9488   36.1209 dc         1 CLA      0.079300
     80 HED1       75.4972   51.2497   36.6176 dc         1 CLA      0.079300
     81 HBC3       72.8250   56.0662   43.0049 dc         1 CLA      0.016300
     82 HBC2       71.1603   56.0188   43.6528 dc         1 CLA      0.016300
     83 HBC1       71.4711   55.7386   41.8607 dc         1 CLA      0.016300
     84 HBB2       80.2484   62.4171   43.6083 da         1 CLA      0.183000
     85 HBB1       80.9820   61.5905   42.1352 da         1 CLA      0.183000
     86 HBA2       79.0900   56.8544   31.8444 dc         1 CLA      0.029400
     87 HBA1       80.2184   56.8817   33.1338 dc         1 CLA      0.029400
     88 HAC2       71.5123   58.3042   43.4086 dc         1 CLA      0.029300
     89 HAC1       70.8857   57.9613   41.7356 dc         1 CLA      0.029300
     90 HAA2       77.0350   56.7238   33.3323 dc         1 CLA      0.028700
     91 HAA1       78.0914   58.1427   33.7215 dc         1 CLA      0.028700
     92 H203       84.2316   57.7522   46.9040 dc         1 CLA      0.065600
     93 H202       84.1643   59.6303   47.1927 dc         1 CLA      0.065600
     94 H201       82.6962   58.5192   47.2314 dc         1 CLA      0.065600
     95 H193       82.1671   60.3585   44.0956 dc         1 CLA      0.065600
     96 H192       81.3341   59.6418   45.3288 dc         1 CLA      0.065600
     97 H191       82.4593   60.9416   45.7307 dc         1 CLA      0.065600
     98 H172       81.9164   57.2951   45.0276 dc         1 CLA      0.027600
     99 H171       83.5064   56.7885   44.8284 dc         1 CLA      0.027600
    100 H162       83.5816   57.9341   42.6004 dc         1 CLA      0.002900
    101 H161       81.7395   58.1379   42.9060 dc         1 CLA      0.002900
    102 H152       81.2383   55.9798   43.1580 dc         1 CLA      0.029100
    103 H151       82.9395   55.4133   43.0731 dc         1 CLA      0.029100
    104 H143       80.7754   56.4329   39.5727 dc         1 CLA      0.063600
    105 H142       80.4331   57.3958   40.8844 dc         1 CLA      0.063600
    106 H141       81.9515   57.8019   39.9994 dc         1 CLA      0.063600
    107 H122       84.0706   54.8728   41.1405 dc         1 CLA      0.032500
    108 H121       84.1233   56.3140   40.4152 dc         1 CLA      0.032500
    109 H112       82.9609   55.5213   38.3227 dc         1 CLA      0.006600
    110 H111       82.6884   53.9134   39.2079 dc         1 CLA      0.006600
    111 H102       84.9698   53.2162   39.0938 dc         1 CLA      0.024100
    112 H101       85.4747   54.9736   38.8136 dc         1 CLA      0.024100
    113 HHD        71.5286   57.2786   39.7543 da         1 CLA      0.174300
    114 HHC        76.0265   60.6404   42.5615 da         1 CLA      0.136800
    115 HHB        80.1506   58.9457   37.8326 da         1 CLA      0.138300
    116 HBD        75.1102   55.7774   33.8459 dc         1 CLA      0.107700
    117 HAB        78.1025   61.8924   42.9948 da         1 CLA      0.155200
    118 H93        86.0538   54.0671   35.3040 dc         1 CLA      0.069500
    119 H92        86.8328   54.7192   36.8749 dc         1 CLA      0.069500
    120 H91        86.6229   53.0353   36.4872 dc         1 CLA      0.069500
    121 H8         84.2541   54.9108   36.6154 dc         1 CLA      0.029300
    122 H72        82.8978   52.6566   37.1300 dc         1 CLA      0.044400
    123 H71        84.5275   51.9083   36.8576 dc         1 CLA      0.044400
    124 H62        84.3992   52.3495   34.5063 dc         1 CLA      0.015600
    125 H61        82.9203   53.4083   34.8283 dc         1 CLA      0.015600
    126 H52        83.0990   50.4595   35.2917 dc         1 CLA      0.033200
    127 H51        82.5180   51.0448   33.6854 dc         1 CLA      0.033200
    128 H43        79.6154   50.1146   36.1142 dc         1 CLA      0.037000
    129 H42        80.4290   49.4687   34.6940 dc         1 CLA      0.037000
    130 H41        81.2686   49.5842   36.3551 dc         1 CLA      0.037000
    131 H3A        79.7225   58.1192   35.4185 dc         1 CLA      0.041100
    132 H2A        78.1618   55.5250   35.1517 dc         1 CLA      0.083100
    133 H2         80.1466   53.0999   35.9115 da         1 CLA      0.180900
    134 H18        84.3534   59.2210   44.7642 dc         1 CLA     -0.003900
    135 H13        81.4580   54.9574   41.1466 dc         1 CLA      0.019700
    136 H12        78.7651   52.7332   33.7074 dc         1 CLA      0.120400
    137 H11        80.4491   52.5595   32.8609 dc         1 CLA      0.120400
    138 C1         67.9441   60.9986   48.8004 Z1         2 LUT      0.509236
    139 C2         66.6512   60.7715   49.6428 Z2         2 LUT     -0.434695
    140 C3         65.8302   61.9746   50.1641 Z3         2 LUT      0.437453
    141 O3         66.3007   62.5877   51.3283 S1         2 LUT     -0.547129
    142 C4         65.7732   63.0957   49.1480 Z4         2 LUT     -0.468603
    143 C5         66.5426   62.7993   47.8247 Z5         2 LUT      0.279246
    144 C6         67.4647   61.8789   47.7113 Z6         2 LUT     -0.305473
    145 C7         67.7093   61.3772   46.3571 Z7         2 LUT      0.069402
    146 C8         68.9335   61.6161   45.7594 Z8         2 LUT     -0.191631
    147 C9         69.3047   61.2695   44.3958 Z9         2 LUT      0.196698
    148 C10        70.4303   61.8063   43.8917 Y1         2 LUT     -0.208611
    149 C11        71.2054   61.7643   42.6528 Y2         2 LUT      0.030784
    150 C12        72.3824   62.3587   42.5350 Y3         2 LUT     -0.220316
    151 C13        73.1977   62.4891   41.4193 Y4         2 LUT      0.215937
    152 C14        74.4422   63.1152   41.5382 Y5         2 LUT     -0.185793
    153 C15        75.4927   63.3154   40.5528 Y6         2 LUT     -0.057835
    154 C16        68.3673   59.5067   48.4012 Y7         2 LUT     -0.405615
    155 C17        68.9630   61.7115   49.6330 Y7         2 LUT     -0.405615
    156 C18        65.8335   63.4064   46.7021 Y9         2 LUT     -0.369639
    157 C19        68.4663   60.3442   43.5604 W1         2 LUT     -0.333362
    158 C20        72.7320   61.8834   40.1413 W2         2 LUT     -0.323439
    159 C21        86.8536   63.9334   34.6506 Z1         2 LUT      0.406104
    160 C22        87.8591   63.2437   33.5360 Z2         2 LUT     -0.404965
    161 C23        88.2593   64.2805   32.5183 Z3         2 LUT      0.391255
    162 O23        89.1462   63.6216   31.6371 S1         2 LUT     -0.528210
    163 C24        87.0719   64.9672   31.8755 W6         2 LUT     -0.258361
    164 C25        85.8975   65.1115   32.4566 Z5         2 LUT      0.133546
    165 C26        85.5508   64.4596   33.8558 W8         2 LUT     -0.147008
    166 C27        84.6658   65.2923   34.7799 Z7         2 LUT      0.023843
    167 C28        83.6429   64.7432   35.5130 Z8         2 LUT     -0.216987
    168 C29        82.9526   65.4150   36.6411 Z9         2 LUT      0.206524
    169 C30        81.9367   64.7249   37.2092 Y1         2 LUT     -0.215556
    170 C31        81.0708   65.1249   38.2753 Y2         2 LUT      0.025142
    171 C32        80.0218   64.3719   38.7261 Y3         2 LUT     -0.212209
    172 C33        79.0481   64.6072   39.7998 Y4         2 LUT      0.240937
    173 C34        77.8159   63.9566   39.8389 Y5         2 LUT     -0.218862
    174 C35        76.6400   63.9796   40.7365 Y6         2 LUT     -0.023547
    175 C36        87.5866   64.9486   35.4849 Y7         2 LUT     -0.393485
    176 C37        86.5492   62.7479   35.5901 Y7         2 LUT     -0.393485
    177 C38        84.8305   65.9623   31.8313 Y9         2 LUT     -0.387526
    178 C39        83.1455   66.9069   36.9727 W1         2 LUT     -0.322618
    179 C40        79.2963   65.7035   40.7713 W2         2 LUT     -0.358472
    180 H403       79.3847   66.6394   40.2189 R7         2 LUT      0.097720
    181 H402       78.4163   65.7609   41.4201 R7         2 LUT      0.097720
    182 H401       80.1886   65.6199   41.3595 R7         2 LUT      0.097720
    183 H393       84.1759   67.1233   37.2224 R4         2 LUT      0.082505
    184 H392       82.8964   67.4904   36.1141 R4         2 LUT      0.082505
    185 H391       82.6317   67.3546   37.8233 R4         2 LUT      0.082505
    186 H383       85.0453   66.4097   30.8267 R1         2 LUT      0.104030
    187 H382       83.8490   65.4825   31.7356 R1         2 LUT      0.104030
    188 H381       84.6741   66.8402   32.4827 R1         2 LUT      0.104030
    189 H373       86.0915   61.9437   34.9572 T4         2 LUT      0.089537
    190 H372       87.5430   62.2774   36.0024 T4         2 LUT      0.089537
    191 H371       85.9312   62.9756   36.5016 T4         2 LUT      0.089537
    192 H363       88.5932   64.6031   35.6810 T4         2 LUT      0.089537
    193 H362       87.5972   65.8973   34.8573 T4         2 LUT      0.089537
    194 H361       87.0146   65.1978   36.4005 T4         2 LUT      0.089537
    195 H222       88.6680   62.7532   34.0544 U2         2 LUT      0.127376
    196 H221       87.3919   62.3941   32.9788 U2         2 LUT      0.127376
    197 H203       71.7163   62.2657   39.9789 R7         2 LUT      0.087068
    198 H202       73.3302   62.3004   39.3437 R7         2 LUT      0.087068
    199 H201       72.6398   60.8002   40.1996 R7         2 LUT      0.087068
    200 H193       69.0114   59.5521   43.1065 R4         2 LUT      0.089716
    201 H192       67.7084   59.8693   44.1106 R4         2 LUT      0.089716
    202 H191       67.9537   60.8225   42.7200 R4         2 LUT      0.089716
    203 H183       66.0735   62.9888   45.7288 R1         2 LUT      0.094572
    204 H182       64.7509   63.4679   46.7786 R1         2 LUT      0.094572
    205 H181       66.2651   64.3626   46.5328 R1         2 LUT      0.094572
    206 H173       69.8600   61.8373   49.0861 T4         2 LUT      0.093752
    207 H172       68.6267   62.7291   49.9679 T4         2 LUT      0.093752
    208 H171       69.2719   61.1185   50.4575 T4         2 LUT      0.093752
    209 H163       68.7586   58.8834   49.2368 T4         2 LUT      0.093752
    210 H162       67.5105   58.9473   48.0872 T4         2 LUT      0.093752
    211 H161       69.1418   59.4831   47.6675 T4         2 LUT      0.093752
    212 HO3        66.0267   62.0340   52.1244 Q1         2 LUT      0.300121
    213 H8         69.6421   62.1901   46.3866 U7         2 LUT      0.080784
    214 H7         66.8668   60.9405   45.8258 U6         2 LUT      0.042190
    215 H42        64.7193   63.2936   48.9804 U5         2 LUT      0.145166
    216 H41        66.3135   64.0299   49.4232 U5         2 LUT      0.145166
    217 H35        76.7951   64.3777   41.7189 T3         2 LUT      0.077919
    218 H34        77.6189   63.2746   39.0340 T2         2 LUT      0.073626
    219 H32        79.7444   63.4782   38.2107 T1         2 LUT      0.092510
    220 H31        81.3853   65.9195   38.8896 U9         2 LUT      0.070048
    221 H30        81.7531   63.6815   36.9803 U8         2 LUT      0.085442
    222 H3         64.7705   61.6132   50.2653 U3         2 LUT     -0.031596
    223 H28        83.2787   63.8062   35.1132 U7         2 LUT      0.084728
    224 H27        85.1261   66.2833   35.0373 U6         2 LUT      0.087291
    225 H26        84.9624   63.6343   33.4289 Q6         2 LUT      0.075325
    226 H24        87.3690   65.5137   30.9815 Q5         2 LUT      0.094482
    227 H23        88.7570   65.0912   32.9670 U3         2 LUT     -0.024869
    228 H22        65.9624   60.0610   49.1320 U2         2 LUT      0.127376
    229 H21        66.8991   60.1519   50.5693 U2         2 LUT      0.127376
    230 H15        75.4188   62.8293   39.5688 T3         2 LUT      0.093200
    231 H14        74.6732   63.4791   42.4685 T2         2 LUT      0.068865
    232 H12        72.7016   62.8238   43.4388 T1         2 LUT      0.095507
    233 H11        70.7283   61.2306   41.8327 U9         2 LUT      0.068930
    234 H10        70.9632   62.4440   44.5947 U8         2 LUT      0.083911
    235 H1         88.6676   63.1874   30.9019 Q1         2 LUT      0.297311
@<TRIPOS>BOND
    1     6     1 1
    2     7     2 1
    3     8     3 1
    4     9     4 1
    5    11     4 1
    6    12     6 1
    7    13     9 1
    8    16     9 1
    9    25     5 1
   10    25    16 1
   11    26    10 1
   12    26    17 1
   13    27    18 1
   14    28    14 1
   15    28    19 1
   16    29    12 1
   17    30    13 1
   18    31    24 1
   19    32     1 1
   20    32    25 1
   21    33    21 1
   22    33    26 1
   23    34    22 1
   24    34    27 1
   25    35    23 1
   26    35    28 1
   27    36    12 1
   28    36    24 1
   29    37    13 1
   30    37    15 1
   31    38    31 1
   32    39    20 1
   33    39    32 1
   34    40     2 1
   35    40    33 1
   36    41     3 1
   37    41    34 1
   38    42     4 1
   39    42    35 1
   40    43    38 1
   41    44     5 1
   42    44    17 1
   43    44    39 1
   44    45    10 1
   45    45    18 1
   46    45    40 1
   47    46    19 1
   48    46    41 1
   49    47    14 1
   50    47    16 1
   51    47    42 1
   52    48    38 1
   53    49    48 1
   54    50    49 1
   55    51    50 1
   56    52    51 1
   57    53    51 1
   58    54    53 1
   59    55    54 1
   60    56    55 1
   61    57    56 1
   62    58    56 1
   63    59    58 1
   64    60    59 1
   65    61    60 1
   66    62    61 1
   67    63    61 1
   68    64    27 1
   69    64    46 1
   70    65     5 1
   71    65    10 1
   72    65    64 1
   73    65    14 1
   74    66    23 1
   75    67    23 1
   76    68    23 1
   77    69    22 1
   78    70    22 1
   79    71    22 1
   80    72    21 1
   81    73    21 1
   82    74    21 1
   83    75    20 1
   84    76    20 1
   85    77    20 1
   86    78    15 1
   87    79    15 1
   88    80    15 1
   89    81     8 1
   90    82     8 1
   91    83     8 1
   92    84     7 1
   93    85     7 1
   94    86     6 1
   95    87     6 1
   96    88     3 1
   97    89     3 1
   98    90     1 1
   99    91     1 1
  100    92    63 1
  101    93    63 1
  102    94    63 1
  103    95    62 1
  104    96    62 1
  105    97    62 1
  106    98    60 1
  107    99    60 1
  108   100    59 1
  109   101    59 1
  110   102    58 1
  111   103    58 1
  112   104    57 1
  113   105    57 1
  114   106    57 1
  115   107    55 1
  116   108    55 1
  117   109    54 1
  118   110    54 1
  119   111    53 1
  120   112    53 1
  121   113    19 1
  122   114    18 1
  123   115    17 1
  124   116     9 1
  125   117     2 1
  126   118    52 1
  127   119    52 1
  128   120    52 1
  129   121    51 1
  130   122    50 1
  131   123    50 1
  132   124    49 1
  133   125    49 1
  134   126    48 1
  135   127    48 1
  136   128    43 1
  137   129    43 1
  138   130    43 1
  139   131    39 1
  140   132    32 1
  141   133    31 1
  142   134    61 1
  143   135    56 1
  144   136    24 1
  145   137    24 1
  146   139   138 1
  147   140   139 1
  148   141   140 1
  149   142   140 1
  150   143   142 1
  151   144   138 1
  152   144   143 1
  153   145   144 1
  154   146   145 1
  155   147   146 1
  156   148   147 1
  157   149   148 1
  158   150   149 1
  159   151   150 1
  160   152   151 1
  161   153   152 1
  162   154   138 1
  163   155   138 1
  164   156   143 1
  165   157   147 1
  166   158   151 1
  167   160   159 1
  168   161   160 1
  169   162   161 1
  170   163   161 1
  171   164   163 1
  172   165   159 1
  173   165   164 1
  174   166   165 1
  175   167   166 1
  176   168   167 1
  177   169   168 1
  178   170   169 1
  179   171   170 1
  180   172   171 1
  181   173   172 1
  182   174   153 1
  183   174   173 1
  184   175   159 1
  185   176   159 1
  186   177   164 1
  187   178   168 1
  188   179   172 1
  189   180   179 1
  190   181   179 1
  191   182   179 1
  192   183   178 1
  193   184   178 1
  194   185   178 1
  195   186   177 1
  196   187   177 1
  197   188   177 1
  198   189   176 1
  199   190   176 1
  200   191   176 1
  201   192   175 1
  202   193   175 1
  203   194   175 1
  204   195   160 1
  205   196   160 1
  206   197   158 1
  207   198   158 1
  208   199   158 1
  209   200   157 1
  210   201   157 1
  211   202   157 1
  212   203   156 1
  213   204   156 1
  214   205   156 1
  215   206   155 1
  216   207   155 1
  217   208   155 1
  218   209   154 1
  219   210   154 1
  220   211   154 1
  221   212   141 1
  222   213   146 1
  223   214   145 1
  224   215   142 1
  225   216   142 1
  226   217   174 1
  227   218   173 1
  228   219   171 1
  229   220   170 1
  230   221   169 1
  231   222   140 1
  232   223   167 1
  233   224   166 1
  234   225   165 1
  235   226   163 1
  236   227   161 1
  237   228   139 1
  238   229   139 1
  239   230   153 1
  240   231   152 1
  241   232   150 1
  242   233   149 1
  243   234   148 1
  244   235   162 1
  245   65    153 1
  246   65    174 1
@<TRIPOS>SUBSTRUCTURE
      1 CLA               1 ****               0 ****  **** 
      2 LUT             138 ****               0 ****  **** 
