@<TRIPOS>MOLECULE
Cpptraj generated mol2 file.
  235   246     2     0     0
SMALL
USER_CHARGES


@<TRIPOS>ATOM
      1 CAA        78.6701   57.3742   35.2768 a2         1 CLA     -0.055900
      2 CAB        78.8409   61.6803   43.8391 c8         1 CLA     -0.148500
      3 CAC        72.0296   57.2791   43.7989 a2         1 CLA     -0.012600
      4 CAD        74.6958   54.5583   36.6714 ck         1 CLA      0.398800
      5 NA         77.7841   57.7560   38.6827 ns         1 CLA     -0.225500
      6 CBA        79.8084   57.0851   34.3086 a2         1 CLA     -0.135000
      7 CBB        79.9630   61.8595   44.6325 c0         1 CLA     -0.395200
      8 CBC        72.3865   55.9193   44.2683 a3         1 CLA     -0.037700
      9 CBD        76.1309   55.0816   36.2857 a1         1 CLA     -0.053900
     10 NB         77.7304   59.5883   41.0498 nm         1 CLA     -0.295700
     11 OBD        73.9956   53.7876   36.1013 o2         1 CLA     -0.494600
     12 CGA        80.3713   55.7001   34.2010 c4         1 CLA      0.827000
     13 CGD        77.1426   53.9763   36.1695 c4         1 CLA      0.655300
     14 ND         75.0556   56.8568   39.2788 nm         1 CLA     -0.291600
     15 CED        78.0087   51.7922   36.8759 a3         1 CLA      0.005400
     16 CHA        76.5738   56.0845   37.4198 cs         1 CLA     -0.123800
     17 CHB        79.6762   59.0242   39.6796 aa         1 CLA     -0.291900
     18 CHC        76.3108   60.0072   43.0268 aa         1 CLA     -0.090400
     19 CHD        73.2083   56.8661   40.9210 aa         1 CLA     -0.052000
     20 CMA        81.1841   56.8632   38.1723 a3         1 CLA     -0.230700
     21 CMB        81.1067   61.1660   41.3695 a3         1 CLA     -0.180800
     22 CMC        73.9383   59.5007   45.1806 a3         1 CLA     -0.134000
     23 CMD        71.9227   54.7589   38.9601 a3         1 CLA     -0.141100
     24 C1         81.5782   53.9307   35.2349 a2         1 CLA      0.023000
     25 C1A        77.6960   56.8938   37.6394 ac         1 CLA     -0.015100
     26 C1B        79.0066   59.7310   40.7397 cr         1 CLA      0.054700
     27 C1C        75.1538   59.1747   42.7967 cn         1 CLA     -0.005600
     28 C1D        73.7905   56.4531   39.6955 ap         1 CLA     -0.047300
     29 O1A        79.9422   54.9331   33.3006 o2         1 CLA     -0.610800
     30 O1D        77.8634   53.9576   35.1825 o2         1 CLA     -0.558200
     31 C2         81.9211   53.4875   36.5694 c8         1 CLA     -0.325100
     32 C2A        78.9512   56.8166   36.7455 a1         1 CLA      0.098600
     33 C2B        79.6799   60.6709   41.6703 cb         1 CLA      0.088500
     34 C2C        74.0673   58.9455   43.7403 cb         1 CLA      0.053700
     35 C2D        73.2527   55.5206   38.7175 cb         1 CLA      0.058900
     36 O2A        81.2657   55.3894   35.2086 o1         1 CLA     -0.437200
     37 O2D        77.1466   53.0273   37.1558 o1         1 CLA     -0.357600
     38 C3         83.1477   53.0133   36.9217 c5         1 CLA      0.031200
     39 C3A        79.9287   57.6284   37.6557 a1         1 CLA      0.166800
     40 C3B        78.7153   60.8914   42.6393 cb         1 CLA      0.035000
     41 C3C        73.2467   57.9317   43.1873 cb         1 CLA     -0.089900
     42 C3D        74.3216   55.3245   37.8236 cb         1 CLA     -0.035900
     43 C4         83.5103   51.5510   36.7559 a3         1 CLA     -0.053300
     44 C4A        79.0773   58.2178   38.7369 ac         1 CLA      0.001800
     45 C4B        77.5070   60.1511   42.2622 cn         1 CLA     -0.020900
     46 C4C        73.7763   57.7780   41.8332 cr         1 CLA     -0.044400
     47 C4D        75.4167   56.1474   38.2245 c6         1 CLA     -0.046000
     48 C5         84.1955   53.9762   37.5279 a2         1 CLA     -0.070400
     49 C6         84.0176   54.1841   39.0811 a2         1 CLA      0.043900
     50 C7         85.2221   54.9326   39.7391 a2         1 CLA     -0.150000
     51 C8         85.3680   56.4509   39.4269 a1         1 CLA      0.064200
     52 C9         86.4297   56.7530   38.3857 a3         1 CLA     -0.259300
     53 C10        85.6755   57.2881   40.7582 a2         1 CLA     -0.071900
     54 C11        84.4958   57.4344   41.6691 a2         1 CLA      0.014500
     55 C12        84.5636   58.6325   42.6702 a2         1 CLA     -0.112100
     56 C13        85.7873   58.7235   43.6222 a1         1 CLA      0.089200
     57 C14        85.7036   57.4740   44.5594 a3         1 CLA     -0.239100
     58 C15        85.8912   60.0046   44.5559 a2         1 CLA     -0.102200
     59 C16        84.5081   60.4920   45.1305 a2         1 CLA      0.023900
     60 C17        84.6980   61.4408   46.3114 a2         1 CLA     -0.105700
     61 C18        83.3478   61.9514   46.9345 a1         1 CLA      0.206800
     62 C19        82.6813   60.9578   47.9180 a3         1 CLA     -0.280100
     63 C20        83.7562   63.2576   47.6830 a3         1 CLA     -0.280100
     64 NC         74.9807   58.4692   41.7189 nx         1 CLA     -0.309200
     65 MG         76.2889   58.3023   40.1215 mg         1 CLA      0.895000
     66 HMD3       71.2641   55.5302   38.7177 dc         1 CLA      0.064300
     67 HMD2       71.6926   54.0065   38.2336 dc         1 CLA      0.064300
     68 HMD1       71.7616   54.4919   40.0311 dc         1 CLA      0.064300
     69 HMC3       74.2304   58.8065   45.9966 dc         1 CLA      0.052100
     70 HMC2       74.3303   60.5614   45.2408 dc         1 CLA      0.052100
     71 HMC1       72.8877   59.6479   45.3627 dc         1 CLA      0.052100
     72 HMB3       81.7935   60.5114   41.7114 dc         1 CLA      0.063600
     73 HMB2       81.0802   61.2730   40.2764 dc         1 CLA      0.063600
     74 HMB1       81.2900   62.1313   41.8050 dc         1 CLA      0.063600
     75 HMA3       81.0505   56.0048   38.8492 dc         1 CLA      0.058300
     76 HMA2       81.7083   56.5254   37.2538 dc         1 CLA      0.058300
     77 HMA1       81.8412   57.5211   38.7720 dc         1 CLA      0.058300
     78 HED3       77.9679   51.3846   35.8590 dc         1 CLA      0.079300
     79 HED2       79.0457   52.0801   37.0256 dc         1 CLA      0.079300
     80 HED1       77.7228   50.9942   37.5934 dc         1 CLA      0.079300
     81 HBC3       72.6510   55.3236   43.3758 dc         1 CLA      0.016300
     82 HBC2       73.1910   56.0393   44.9599 dc         1 CLA      0.016300
     83 HBC1       71.4864   55.5144   44.6838 dc         1 CLA      0.016300
     84 HBB2       79.9608   62.3450   45.6380 da         1 CLA      0.183000
     85 HBB1       80.9804   61.4855   44.3328 da         1 CLA      0.183000
     86 HBA2       79.4598   57.3363   33.2765 dc         1 CLA      0.029400
     87 HBA1       80.5812   57.8123   34.5710 dc         1 CLA      0.029400
     88 HAC2       71.7322   57.8875   44.6878 dc         1 CLA      0.029300
     89 HAC1       71.2435   57.2052   43.0655 dc         1 CLA      0.029300
     90 HAA2       77.7273   56.9587   34.9253 dc         1 CLA      0.028700
     91 HAA1       78.7458   58.4476   35.2838 dc         1 CLA      0.028700
     92 H203       84.5406   63.1562   48.4310 dc         1 CLA      0.065600
     93 H202       83.8824   64.0683   46.8944 dc         1 CLA      0.065600
     94 H201       82.9458   63.4776   48.3680 dc         1 CLA      0.065600
     95 H193       82.5251   60.0047   47.4281 dc         1 CLA      0.065600
     96 H192       83.2939   60.7548   48.7767 dc         1 CLA      0.065600
     97 H191       81.8201   61.4719   48.3272 dc         1 CLA      0.065600
     98 H172       85.3128   60.7552   47.0049 dc         1 CLA      0.027600
     99 H171       85.2832   62.2751   46.0879 dc         1 CLA      0.027600
    100 H162       84.0506   61.1007   44.3127 dc         1 CLA      0.002900
    101 H161       83.8411   59.7802   45.4332 dc         1 CLA      0.002900
    102 H152       86.6708   59.8312   45.2950 dc         1 CLA      0.029100
    103 H151       86.2623   60.8778   44.0389 dc         1 CLA      0.029100
    104 H143       86.5338   57.5679   45.3210 dc         1 CLA      0.063600
    105 H142       84.8263   57.5104   45.0764 dc         1 CLA      0.063600
    106 H141       85.8647   56.4688   44.0059 dc         1 CLA      0.063600
    107 H122       84.5812   59.6243   42.2315 dc         1 CLA      0.032500
    108 H121       83.6868   58.6176   43.2421 dc         1 CLA      0.032500
    109 H112       83.7044   57.6497   41.0054 dc         1 CLA      0.006600
    110 H111       84.2522   56.5718   42.2488 dc         1 CLA      0.006600
    111 H102       86.5373   56.9489   41.3120 dc         1 CLA      0.024100
    112 H101       85.9882   58.3062   40.4407 dc         1 CLA      0.024100
    113 HHD        72.2780   56.4271   41.1864 da         1 CLA      0.174300
    114 HHC        76.3184   60.6373   43.9117 da         1 CLA      0.136800
    115 HHB        80.7668   58.9710   39.7950 da         1 CLA      0.138300
    116 HBD        75.9277   55.6893   35.3943 dc         1 CLA      0.107700
    117 HAB        77.9147   62.1351   44.2433 da         1 CLA      0.155200
    118 H93        87.3581   56.2564   38.7090 dc         1 CLA      0.069500
    119 H92        86.1475   56.3212   37.4308 dc         1 CLA      0.069500
    120 H91        86.6496   57.7855   38.2940 dc         1 CLA      0.069500
    121 H8         84.5609   56.9013   38.9491 dc         1 CLA      0.029300
    122 H72        85.2456   54.8728   40.7869 dc         1 CLA      0.044400
    123 H71        86.1787   54.4608   39.3909 dc         1 CLA      0.044400
    124 H62        83.0321   54.6529   39.3805 dc         1 CLA      0.015600
    125 H61        83.8031   53.2807   39.5278 dc         1 CLA      0.015600
    126 H52        85.2064   53.5536   37.3357 dc         1 CLA      0.033200
    127 H51        84.1746   54.9796   37.0832 dc         1 CLA      0.033200
    128 H43        83.8273   51.3158   35.7435 dc         1 CLA      0.037000
    129 H42        84.0021   51.2162   37.6196 dc         1 CLA      0.037000
    130 H41        82.5542   50.9482   36.7983 dc         1 CLA      0.037000
    131 H3A        80.3009   58.4370   37.1107 dc         1 CLA      0.041100
    132 H2A        79.2094   55.7278   36.7489 dc         1 CLA      0.083100
    133 H2         81.0179   53.6638   37.2016 da         1 CLA      0.180900
    134 H18        82.6502   62.2995   46.1489 dc         1 CLA     -0.003900
    135 H13        86.6950   58.6717   43.0099 dc         1 CLA      0.019700
    136 H12        80.7113   53.3662   34.9766 dc         1 CLA      0.120400
    137 H11        82.2877   53.6492   34.4553 dc         1 CLA      0.120400
    138 C1         68.3223   60.8377   50.6519 Z1         2 LUT      0.509236
    139 C2         66.9193   60.6479   51.2482 Z2         2 LUT     -0.434695
    140 C3         66.0283   61.8396   51.6254 Z3         2 LUT      0.437453
    141 O3         65.7597   61.8914   53.0208 S1         2 LUT     -0.547129
    142 C4         66.5260   63.0821   50.8751 Z4         2 LUT     -0.468603
    143 C5         67.0906   62.7463   49.5099 Z5         2 LUT      0.279246
    144 C6         68.0256   61.7700   49.3696 Z6         2 LUT     -0.305473
    145 C7         68.3218   61.2043   48.0186 Z7         2 LUT      0.069402
    146 C8         69.5112   61.2940   47.3814 Z8         2 LUT     -0.191631
    147 C9         69.8387   61.1528   45.9661 Z9         2 LUT      0.196698
    148 C10        70.8527   61.9136   45.4190 Y1         2 LUT     -0.208611
    149 C11        71.3739   61.9680   44.0658 Y2         2 LUT      0.030784
    150 C12        72.6002   62.3904   43.6639 Y3         2 LUT     -0.220316
    151 C13        73.3755   62.2868   42.4152 Y4         2 LUT      0.215937
    152 C14        74.6034   62.8601   42.3936 Y5         2 LUT     -0.185793
    153 C15        75.6230   62.8099   41.4328 Y6         2 LUT     -0.057835
    154 C16        68.8389   59.4063   50.2708 Y7         2 LUT     -0.405615
    155 C17        69.3081   61.4027   51.8137 Y7         2 LUT     -0.405615
    156 C18        66.3907   63.4688   48.4177 Y9         2 LUT     -0.369639
    157 C19        69.0380   60.2416   45.0529 W1         2 LUT     -0.333362
    158 C20        73.0322   61.2435   41.3688 W2         2 LUT     -0.323439
    159 C21        87.3022   64.6396   35.4536 Z1         2 LUT      0.406104
    160 C22        88.1606   64.5153   34.2057 Z2         2 LUT     -0.404965
    161 C23        88.0210   65.6191   33.1948 Z3         2 LUT      0.391255
    162 O23        89.0343   65.4631   32.1410 S1         2 LUT     -0.528210
    163 C24        86.5437   65.9800   32.9342 W6         2 LUT     -0.258361
    164 C25        85.5575   65.7054   33.7249 Z5         2 LUT      0.133546
    165 C26        85.7796   64.9652   35.0582 W8         2 LUT     -0.147008
    166 C27        84.9882   65.4160   36.2707 Z7         2 LUT      0.023843
    167 C28        83.8669   64.8564   36.7254 Z8         2 LUT     -0.216987
    168 C29        83.0146   65.2433   37.8873 Z9         2 LUT      0.206524
    169 C30        81.9530   64.4958   38.2605 Y1         2 LUT     -0.215556
    170 C31        81.1600   64.6780   39.4797 Y2         2 LUT      0.025142
    171 C32        80.0159   64.0088   39.7342 Y3         2 LUT     -0.212209
    172 C33        79.1378   64.1603   40.8729 Y4         2 LUT      0.240937
    173 C34        77.8761   63.5305   40.6777 Y5         2 LUT     -0.218862
    174 C35        76.7387   63.5427   41.5880 Y6         2 LUT     -0.023547
    175 C36        87.9758   65.5975   36.3818 Y7         2 LUT     -0.393485
    176 C37        87.5416   63.3039   36.1171 Y7         2 LUT     -0.393485
    177 C38        84.1862   66.3455   33.5501 Y9         2 LUT     -0.387526
    178 C39        83.5243   66.5910   38.5833 W1         2 LUT     -0.322618
    179 C40        79.3900   65.1556   41.9510 W2         2 LUT     -0.358472
    180 H403       79.6850   64.6930   42.8399 R7         2 LUT      0.097720
    181 H402       80.1642   65.8965   41.6871 R7         2 LUT      0.097720
    182 H401       78.5279   65.7623   42.2138 R7         2 LUT      0.097720
    183 H393       83.9641   67.3925   37.9207 R4         2 LUT      0.082505
    184 H392       82.6982   67.1063   39.0778 R4         2 LUT      0.082505
    185 H391       84.3464   66.4231   39.2277 R4         2 LUT      0.082505
    186 H383       83.6122   66.5435   34.5031 R1         2 LUT      0.104030
    187 H382       84.1451   67.2177   32.9412 R1         2 LUT      0.104030
    188 H381       83.6645   65.5678   32.9687 R1         2 LUT      0.104030
    189 H373       88.6077   62.9979   36.2147 T4         2 LUT      0.089537
    190 H372       87.1027   63.2735   37.1619 T4         2 LUT      0.089537
    191 H371       86.9435   62.6352   35.6167 T4         2 LUT      0.089537
    192 H363       87.9438   66.6238   35.9461 T4         2 LUT      0.089537
    193 H362       87.5471   65.7092   37.3679 T4         2 LUT      0.089537
    194 H361       89.0245   65.3620   36.4720 T4         2 LUT      0.089537
    195 H222       89.2273   64.3126   34.3150 U2         2 LUT      0.127376
    196 H221       87.6572   63.6786   33.7434 U2         2 LUT      0.127376
    197 H203       72.3231   61.6793   40.5701 R7         2 LUT      0.087068
    198 H202       73.8476   60.7620   40.8302 R7         2 LUT      0.087068
    199 H201       72.3912   60.5437   41.8308 R7         2 LUT      0.087068
    200 H193       68.6370   59.3612   45.5917 R4         2 LUT      0.089716
    201 H192       68.2414   60.8279   44.5934 R4         2 LUT      0.089716
    202 H191       69.7174   59.8158   44.2881 R4         2 LUT      0.089716
    203 H183       66.8456   63.1771   47.4724 R1         2 LUT      0.094572
    204 H182       65.3085   63.1532   48.5607 R1         2 LUT      0.094572
    205 H181       66.4937   64.5663   48.4015 R1         2 LUT      0.094572
    206 H173       69.3786   60.6966   52.5918 T4         2 LUT      0.093752
    207 H172       70.3138   61.5129   51.3707 T4         2 LUT      0.093752
    208 H171       68.9356   62.3591   52.1140 T4         2 LUT      0.093752
    209 H163       68.7613   58.6471   51.1011 T4         2 LUT      0.093752
    210 H162       68.2485   58.9452   49.4377 T4         2 LUT      0.093752
    211 H161       69.8222   59.4093   49.8794 T4         2 LUT      0.093752
    212 HO3        66.5754   62.0147   53.5243 Q1         2 LUT      0.300121
    213 H8         70.3311   61.7485   47.9695 U7         2 LUT      0.080784
    214 H7         67.4908   61.0317   47.3223 U6         2 LUT      0.042190
    215 H42        65.7404   63.7861   50.8179 U5         2 LUT      0.145166
    216 H41        67.1856   63.5599   51.5446 U5         2 LUT      0.145166
    217 H35        76.7850   64.1289   42.4484 T3         2 LUT      0.077919
    218 H34        77.7500   62.9152   39.7943 T2         2 LUT      0.073626
    219 H32        79.6838   63.2027   38.9570 T1         2 LUT      0.092510
    220 H31        81.4025   65.4975   40.0943 U9         2 LUT      0.070048
    221 H30        81.7080   63.5669   37.7245 U8         2 LUT      0.085442
    222 H3         65.0388   61.6039   51.1629 U3         2 LUT     -0.031596
    223 H28        83.4428   64.0029   36.1019 U7         2 LUT      0.084728
    224 H27        85.2787   66.3820   36.6771 U6         2 LUT      0.087291
    225 H26        85.6932   63.8554   34.7606 Q6         2 LUT      0.075325
    226 H24        86.2415   66.4375   32.0100 Q5         2 LUT      0.094482
    227 H23        88.3626   66.4943   33.7515 U3         2 LUT     -0.024869
    228 H22        66.3440   60.0942   50.5399 U2         2 LUT      0.127376
    229 H21        66.9705   59.8776   51.9810 U2         2 LUT      0.127376
    230 H15        75.4775   62.1388   40.5501 T3         2 LUT      0.093200
    231 H14        74.8778   63.3582   43.3038 T2         2 LUT      0.068865
    232 H12        73.1608   62.9438   44.3563 T1         2 LUT      0.095507
    233 H11        70.8292   61.4223   43.2897 U9         2 LUT      0.068930
    234 H10        71.2974   62.6630   46.0198 U8         2 LUT      0.083911
    235 H1         88.6229   65.0348   31.3514 Q1         2 LUT      0.297311
@<TRIPOS>BOND
    1     6     1 1
    2     7     2 1
    3     8     3 1
    4     9     4 1
    5    11     4 1
    6    12     6 1
    7    13     9 1
    8    16     9 1
    9    25     5 1
   10    25    16 1
   11    26    10 1
   12    26    17 1
   13    27    18 1
   14    28    14 1
   15    28    19 1
   16    29    12 1
   17    30    13 1
   18    31    24 1
   19    32     1 1
   20    32    25 1
   21    33    21 1
   22    33    26 1
   23    34    22 1
   24    34    27 1
   25    35    23 1
   26    35    28 1
   27    36    12 1
   28    36    24 1
   29    37    13 1
   30    37    15 1
   31    38    31 1
   32    39    20 1
   33    39    32 1
   34    40     2 1
   35    40    33 1
   36    41     3 1
   37    41    34 1
   38    42     4 1
   39    42    35 1
   40    43    38 1
   41    44     5 1
   42    44    17 1
   43    44    39 1
   44    45    10 1
   45    45    18 1
   46    45    40 1
   47    46    19 1
   48    46    41 1
   49    47    14 1
   50    47    16 1
   51    47    42 1
   52    48    38 1
   53    49    48 1
   54    50    49 1
   55    51    50 1
   56    52    51 1
   57    53    51 1
   58    54    53 1
   59    55    54 1
   60    56    55 1
   61    57    56 1
   62    58    56 1
   63    59    58 1
   64    60    59 1
   65    61    60 1
   66    62    61 1
   67    63    61 1
   68    64    27 1
   69    64    46 1
   70    65     5 1
   71    65    10 1
   72    65    64 1
   73    65    14 1
   74    66    23 1
   75    67    23 1
   76    68    23 1
   77    69    22 1
   78    70    22 1
   79    71    22 1
   80    72    21 1
   81    73    21 1
   82    74    21 1
   83    75    20 1
   84    76    20 1
   85    77    20 1
   86    78    15 1
   87    79    15 1
   88    80    15 1
   89    81     8 1
   90    82     8 1
   91    83     8 1
   92    84     7 1
   93    85     7 1
   94    86     6 1
   95    87     6 1
   96    88     3 1
   97    89     3 1
   98    90     1 1
   99    91     1 1
  100    92    63 1
  101    93    63 1
  102    94    63 1
  103    95    62 1
  104    96    62 1
  105    97    62 1
  106    98    60 1
  107    99    60 1
  108   100    59 1
  109   101    59 1
  110   102    58 1
  111   103    58 1
  112   104    57 1
  113   105    57 1
  114   106    57 1
  115   107    55 1
  116   108    55 1
  117   109    54 1
  118   110    54 1
  119   111    53 1
  120   112    53 1
  121   113    19 1
  122   114    18 1
  123   115    17 1
  124   116     9 1
  125   117     2 1
  126   118    52 1
  127   119    52 1
  128   120    52 1
  129   121    51 1
  130   122    50 1
  131   123    50 1
  132   124    49 1
  133   125    49 1
  134   126    48 1
  135   127    48 1
  136   128    43 1
  137   129    43 1
  138   130    43 1
  139   131    39 1
  140   132    32 1
  141   133    31 1
  142   134    61 1
  143   135    56 1
  144   136    24 1
  145   137    24 1
  146   139   138 1
  147   140   139 1
  148   141   140 1
  149   142   140 1
  150   143   142 1
  151   144   138 1
  152   144   143 1
  153   145   144 1
  154   146   145 1
  155   147   146 1
  156   148   147 1
  157   149   148 1
  158   150   149 1
  159   151   150 1
  160   152   151 1
  161   153   152 1
  162   154   138 1
  163   155   138 1
  164   156   143 1
  165   157   147 1
  166   158   151 1
  167   160   159 1
  168   161   160 1
  169   162   161 1
  170   163   161 1
  171   164   163 1
  172   165   159 1
  173   165   164 1
  174   166   165 1
  175   167   166 1
  176   168   167 1
  177   169   168 1
  178   170   169 1
  179   171   170 1
  180   172   171 1
  181   173   172 1
  182   174   153 1
  183   174   173 1
  184   175   159 1
  185   176   159 1
  186   177   164 1
  187   178   168 1
  188   179   172 1
  189   180   179 1
  190   181   179 1
  191   182   179 1
  192   183   178 1
  193   184   178 1
  194   185   178 1
  195   186   177 1
  196   187   177 1
  197   188   177 1
  198   189   176 1
  199   190   176 1
  200   191   176 1
  201   192   175 1
  202   193   175 1
  203   194   175 1
  204   195   160 1
  205   196   160 1
  206   197   158 1
  207   198   158 1
  208   199   158 1
  209   200   157 1
  210   201   157 1
  211   202   157 1
  212   203   156 1
  213   204   156 1
  214   205   156 1
  215   206   155 1
  216   207   155 1
  217   208   155 1
  218   209   154 1
  219   210   154 1
  220   211   154 1
  221   212   141 1
  222   213   146 1
  223   214   145 1
  224   215   142 1
  225   216   142 1
  226   217   174 1
  227   218   173 1
  228   219   171 1
  229   220   170 1
  230   221   169 1
  231   222   140 1
  232   223   167 1
  233   224   166 1
  234   225   165 1
  235   226   163 1
  236   227   161 1
  237   228   139 1
  238   229   139 1
  239   230   153 1
  240   231   152 1
  241   232   150 1
  242   233   149 1
  243   234   148 1
  244   235   162 1
  245   65    153 1
  246   65    174 1
@<TRIPOS>SUBSTRUCTURE
      1 CLA               1 ****               0 ****  **** 
      2 LUT             138 ****               0 ****  **** 
