@<TRIPOS>MOLECULE
Cpptraj generated mol2 file.
  235   246     2     0     0
SMALL
USER_CHARGES


@<TRIPOS>ATOM
      1 CAA        79.3805   59.2728   34.0663 a2         1 CLA     -0.055900
      2 CAB        79.4902   62.7257   43.1662 c8         1 CLA     -0.148500
      3 CAC        72.7455   58.3971   42.8997 a2         1 CLA     -0.012600
      4 CAD        75.3047   56.5529   35.0910 ck         1 CLA      0.398800
      5 NA         78.4772   59.4109   37.5384 ns         1 CLA     -0.225500
      6 CBA        80.5691   58.9441   33.0712 a2         1 CLA     -0.135000
      7 CBB        80.6602   62.7704   43.9071 c0         1 CLA     -0.395200
      8 CBC        72.4230   56.9348   42.5672 a3         1 CLA     -0.037700
      9 CBD        76.7825   57.1370   34.8198 a1         1 CLA     -0.053900
     10 NB         78.3191   60.8311   40.2211 nm         1 CLA     -0.295700
     11 OBD        74.6297   55.9357   34.2815 o2         1 CLA     -0.494600
     12 CGA        80.9464   57.5661   32.7104 c4         1 CLA      0.827000
     13 CGD        77.7247   56.0112   34.3526 c4         1 CLA      0.655300
     14 ND         75.7228   58.2987   38.1506 nm         1 CLA     -0.291600
     15 CED        78.4788   53.7379   34.7317 a3         1 CLA      0.005400
     16 CHA        77.1480   57.9474   36.0813 cs         1 CLA     -0.123800
     17 CHB        80.2550   60.6428   38.6620 aa         1 CLA     -0.291900
     18 CHC        76.9406   61.0524   42.2150 aa         1 CLA     -0.090400
     19 CHD        73.8717   58.1101   39.7173 aa         1 CLA     -0.052000
     20 CMA        81.7723   58.7349   36.8774 a3         1 CLA     -0.230700
     21 CMB        81.7350   62.3885   40.8062 a3         1 CLA     -0.180800
     22 CMC        74.5624   60.4842   44.2702 a3         1 CLA     -0.134000
     23 CMD        72.5692   56.4195   37.4260 a3         1 CLA     -0.141100
     24 C1         81.9075   55.6201   33.6641 a2         1 CLA      0.023000
     25 C1A        78.3431   58.6592   36.3588 ac         1 CLA     -0.015100
     26 C1B        79.6592   61.1174   39.8650 cr         1 CLA      0.054700
     27 C1C        75.7944   60.2892   41.9317 cn         1 CLA     -0.005600
     28 C1D        74.4793   57.7504   38.4963 ap         1 CLA     -0.047300
     29 O1A        80.9526   57.1684   31.5434 o2         1 CLA     -0.610800
     30 O1D        78.3930   56.0541   33.3334 o2         1 CLA     -0.558200
     31 C2         82.4993   55.2033   35.0048 c8         1 CLA     -0.325100
     32 C2A        79.5299   58.7206   35.4714 a1         1 CLA      0.098600
     33 C2B        80.3040   61.8521   40.9161 cb         1 CLA      0.088500
     34 C2C        74.7211   59.9649   42.8851 cb         1 CLA      0.053700
     35 C2D        73.9437   56.9805   37.4080 cb         1 CLA      0.058900
     36 O2A        81.3920   56.9487   33.8283 o1         1 CLA     -0.437200
     37 O2D        77.8198   54.9359   35.2148 o1         1 CLA     -0.357600
     38 C3         83.3626   54.2198   35.0106 c5         1 CLA      0.031200
     39 C3A        80.4929   59.5606   36.4098 a1         1 CLA      0.166800
     40 C3B        79.3421   62.0523   41.8819 cb         1 CLA      0.035000
     41 C3C        73.9323   59.0124   42.2131 cb         1 CLA     -0.089900
     42 C3D        75.0072   56.9689   36.4555 cb         1 CLA     -0.035900
     43 C4         82.8695   52.7454   35.2306 a3         1 CLA     -0.053300
     44 C4A        79.6910   59.9588   37.6012 ac         1 CLA      0.001800
     45 C4B        78.1218   61.3339   41.4576 cn         1 CLA     -0.020900
     46 C4C        74.4760   58.8871   40.8192 cr         1 CLA     -0.044400
     47 C4D        76.0588   57.7355   36.9718 c6         1 CLA     -0.046000
     48 C5         84.8672   54.5426   34.6985 a2         1 CLA     -0.070400
     49 C6         85.4155   55.8388   35.2575 a2         1 CLA      0.043900
     50 C7         85.1875   55.7154   36.8270 a2         1 CLA     -0.150000
     51 C8         85.2417   57.0832   37.5691 a1         1 CLA      0.064200
     52 C9         86.5478   57.9456   37.3334 a3         1 CLA     -0.259300
     53 C10        85.0658   56.9342   39.1857 a2         1 CLA     -0.071900
     54 C11        84.8599   58.1547   40.0574 a2         1 CLA      0.014500
     55 C12        84.4673   57.7399   41.5118 a2         1 CLA     -0.112100
     56 C13        84.3859   58.8652   42.6199 a1         1 CLA      0.089200
     57 C14        85.7416   59.4313   43.1411 a3         1 CLA     -0.239100
     58 C15        83.3531   58.6264   43.7598 a2         1 CLA     -0.102200
     59 C16        81.8265   58.5218   43.3963 a2         1 CLA      0.023900
     60 C17        80.9965   58.1865   44.6145 a2         1 CLA     -0.105700
     61 C18        79.5971   57.7414   44.5195 a1         1 CLA      0.206800
     62 C19        79.0558   56.8145   45.6753 a3         1 CLA     -0.280100
     63 C20        78.6923   58.9523   44.3299 a3         1 CLA     -0.280100
     64 NC         75.6290   59.6174   40.6989 nx         1 CLA     -0.309200
     65 MG         76.9253   59.6346   39.1115 mg         1 CLA      0.895000
     66 HMD3       71.8632   57.2131   37.0910 dc         1 CLA      0.064300
     67 HMD2       72.5302   55.7537   36.5796 dc         1 CLA      0.064300
     68 HMD1       72.2437   55.9249   38.3527 dc         1 CLA      0.064300
     69 HMC3       74.9240   59.6769   44.9002 dc         1 CLA      0.052100
     70 HMC2       75.0043   61.4966   44.3697 dc         1 CLA      0.052100
     71 HMC1       73.5039   60.4388   44.3941 dc         1 CLA      0.052100
     72 HMB3       82.4862   61.5712   40.8974 dc         1 CLA      0.063600
     73 HMB2       81.9284   62.6670   39.8040 dc         1 CLA      0.063600
     74 HMB1       82.0539   63.2136   41.5129 dc         1 CLA      0.063600
     75 HMA3       82.4181   58.2295   36.0953 dc         1 CLA      0.058300
     76 HMA2       82.4517   59.3274   37.4599 dc         1 CLA      0.058300
     77 HMA1       81.4199   57.8592   37.4094 dc         1 CLA      0.058300
     78 HED3       77.9968   52.8718   35.1062 dc         1 CLA      0.079300
     79 HED2       78.2893   53.4846   33.6757 dc         1 CLA      0.079300
     80 HED1       79.5489   53.6487   34.9424 dc         1 CLA      0.079300
     81 HBC3       72.0285   56.8908   41.6154 dc         1 CLA      0.016300
     82 HBC2       73.3166   56.3180   42.7375 dc         1 CLA      0.016300
     83 HBC1       71.6938   56.5982   43.2348 dc         1 CLA      0.016300
     84 HBB2       80.6880   63.1809   44.9227 da         1 CLA      0.183000
     85 HBB1       81.5550   62.2622   43.5202 da         1 CLA      0.183000
     86 HBA2       80.4377   59.3414   32.1271 dc         1 CLA      0.029400
     87 HBA1       81.4680   59.3927   33.5345 dc         1 CLA      0.029400
     88 HAC2       72.9605   58.3397   44.0147 dc         1 CLA      0.029300
     89 HAC1       71.8190   58.9671   42.7391 dc         1 CLA      0.029300
     90 HAA2       78.6275   58.6609   33.6272 dc         1 CLA      0.028700
     91 HAA1       79.1273   60.3471   34.0931 dc         1 CLA      0.028700
     92 H203       79.0810   59.5185   43.4382 dc         1 CLA      0.065600
     93 H202       77.5971   58.8272   44.1503 dc         1 CLA      0.065600
     94 H201       78.6678   59.5207   45.2950 dc         1 CLA      0.065600
     95 H193       78.1476   56.4180   45.3402 dc         1 CLA      0.065600
     96 H192       79.6422   55.8774   45.8467 dc         1 CLA      0.065600
     97 H191       78.7870   57.3375   46.5845 dc         1 CLA      0.065600
     98 H172       81.6442   57.4379   45.1293 dc         1 CLA      0.027600
     99 H171       80.9965   59.0632   45.1716 dc         1 CLA      0.027600
    100 H162       81.4433   59.3763   42.7741 dc         1 CLA      0.002900
    101 H161       81.6519   57.6573   42.7939 dc         1 CLA      0.002900
    102 H152       83.6924   57.6627   44.0981 dc         1 CLA      0.029100
    103 H151       83.3997   59.3660   44.5030 dc         1 CLA      0.029100
    104 H143       85.5068   60.4329   43.5428 dc         1 CLA      0.063600
    105 H142       86.0839   58.8245   43.9744 dc         1 CLA      0.063600
    106 H141       86.4620   59.6320   42.3334 dc         1 CLA      0.063600
    107 H122       83.4149   57.4456   41.4291 dc         1 CLA      0.032500
    108 H121       84.9925   56.9073   41.9396 dc         1 CLA      0.032500
    109 H112       85.7389   58.7450   40.1045 dc         1 CLA      0.006600
    110 H111       84.0215   58.7756   39.6545 dc         1 CLA      0.006600
    111 H102       84.1497   56.3562   39.2780 dc         1 CLA      0.024100
    112 H101       85.9926   56.4012   39.5529 dc         1 CLA      0.024100
    113 HHD        72.8478   57.8622   39.9774 da         1 CLA      0.174300
    114 HHC        76.9315   61.2501   43.2806 da         1 CLA      0.136800
    115 HHB        81.2617   61.0844   38.4868 da         1 CLA      0.138300
    116 HBD        76.7048   57.8106   33.9988 dc         1 CLA      0.107700
    117 HAB        78.6113   63.1381   43.5905 da         1 CLA      0.155200
    118 H93        86.3281   58.9692   37.6366 dc         1 CLA      0.069500
    119 H92        87.2930   57.5242   37.9995 dc         1 CLA      0.069500
    120 H91        86.8371   57.9078   36.2802 dc         1 CLA      0.069500
    121 H8         84.3985   57.6183   37.1973 dc         1 CLA      0.029300
    122 H72        84.2470   55.2398   37.1945 dc         1 CLA      0.044400
    123 H71        86.0034   55.1234   37.1896 dc         1 CLA      0.044400
    124 H62        86.4413   55.8765   34.7749 dc         1 CLA      0.015600
    125 H61        84.8193   56.6450   34.7955 dc         1 CLA      0.015600
    126 H52        85.2856   53.6025   35.1387 dc         1 CLA      0.033200
    127 H51        85.1155   54.5184   33.6334 dc         1 CLA      0.033200
    128 H43        83.4605   52.3036   36.0352 dc         1 CLA      0.037000
    129 H42        81.8097   52.7536   35.5153 dc         1 CLA      0.037000
    130 H41        82.9729   52.1762   34.3111 dc         1 CLA      0.037000
    131 H3A        80.8423   60.3962   35.7514 dc         1 CLA      0.041100
    132 H2A        79.9448   57.7776   35.4597 dc         1 CLA      0.083100
    133 H2         82.3758   55.8293   35.8800 da         1 CLA      0.180900
    134 H18        79.7246   57.1624   43.5667 dc         1 CLA     -0.003900
    135 H13        83.8768   59.7759   42.1949 dc         1 CLA      0.019700
    136 H12        81.0565   54.9682   33.4793 dc         1 CLA      0.120400
    137 H11        82.6945   55.6599   32.9112 dc         1 CLA      0.120400
    138 C1         68.8135   62.1210   49.6875 Z1         2 LUT      0.509236
    139 C2         67.4650   61.8955   50.4276 Z2         2 LUT     -0.434695
    140 C3         66.7071   63.1836   50.7296 Z3         2 LUT      0.437453
    141 O3         66.2311   63.2674   52.0770 S1         2 LUT     -0.547129
    142 C4         67.3299   64.3861   50.1972 Z4         2 LUT     -0.468603
    143 C5         67.8535   64.2329   48.8031 Z5         2 LUT      0.279246
    144 C6         68.6580   63.2057   48.5327 Z6         2 LUT     -0.305473
    145 C7         69.0839   62.7531   47.1410 Z7         2 LUT      0.069402
    146 C8         70.2251   63.1460   46.4542 Z8         2 LUT     -0.191631
    147 C9         70.7469   62.8787   45.1189 Z9         2 LUT      0.196698
    148 C10        71.8633   63.5718   44.7898 Y1         2 LUT     -0.208611
    149 C11        72.5817   63.4558   43.5125 Y2         2 LUT      0.030784
    150 C12        73.7165   64.2074   43.2305 Y3         2 LUT     -0.220316
    151 C13        74.7505   64.2007   42.2322 Y4         2 LUT      0.215937
    152 C14        75.9080   64.9215   42.4776 Y5         2 LUT     -0.185793
    153 C15        76.9633   64.9076   41.4941 Y6         2 LUT     -0.057835
    154 C16        69.2685   60.6999   49.2442 Y7         2 LUT     -0.405615
    155 C17        69.7965   62.4747   50.8791 Y7         2 LUT     -0.405615
    156 C18        67.1254   65.0653   47.7312 Y9         2 LUT     -0.369639
    157 C19        70.1020   61.7926   44.2766 W1         2 LUT     -0.333362
    158 C20        74.3393   63.8444   40.8592 W2         2 LUT     -0.323439
    159 C21        87.9100   66.2419   34.7997 Z1         2 LUT      0.406104
    160 C22        88.7647   65.6448   33.5793 Z2         2 LUT     -0.404965
    161 C23        88.9276   66.5042   32.3750 Z3         2 LUT      0.391255
    162 O23        89.3086   65.6650   31.3278 S1         2 LUT     -0.528210
    163 C24        87.6828   67.3213   32.1045 W6         2 LUT     -0.258361
    164 C25        86.5930   67.4182   32.8733 Z5         2 LUT      0.133546
    165 C26        86.5243   66.7996   34.2806 W8         2 LUT     -0.147008
    166 C27        85.8157   67.5702   35.3996 Z7         2 LUT      0.023843
    167 C28        84.7753   66.9263   36.1410 Z8         2 LUT     -0.216987
    168 C29        84.0729   67.4489   37.3074 Z9         2 LUT      0.206524
    169 C30        82.9129   66.8238   37.7268 Y1         2 LUT     -0.215556
    170 C31        82.1852   67.0670   38.9641 Y2         2 LUT      0.025142
    171 C32        80.9665   66.4124   39.2564 Y3         2 LUT     -0.212209
    172 C33        80.2008   66.4238   40.4397 Y4         2 LUT      0.240937
    173 C34        79.0551   65.6866   40.5017 Y5         2 LUT     -0.218862
    174 C35        78.1074   65.7362   41.5223 Y6         2 LUT     -0.023547
    175 C36        88.9217   67.3266   35.3130 Y7         2 LUT     -0.393485
    176 C37        87.7198   65.1292   35.8902 Y7         2 LUT     -0.393485
    177 C38        85.4446   68.2902   32.4106 Y9         2 LUT     -0.387526
    178 C39        84.6239   68.5804   38.0682 W1         2 LUT     -0.322618
    179 C40        80.6557   67.1994   41.6775 W2         2 LUT     -0.358472
    180 H403       81.7331   67.0154   41.8310 R7         2 LUT      0.097720
    181 H402       80.4951   68.2727   41.6013 R7         2 LUT      0.097720
    182 H401       80.1698   66.9015   42.5770 R7         2 LUT      0.097720
    183 H393       83.8523   69.3292   38.1807 R4         2 LUT      0.082505
    184 H392       85.1345   68.1983   38.9750 R4         2 LUT      0.082505
    185 H391       85.5388   69.0577   37.5820 R4         2 LUT      0.082505
    186 H383       85.4595   69.3009   32.8769 R1         2 LUT      0.104030
    187 H382       85.5992   68.4762   31.4092 R1         2 LUT      0.104030
    188 H381       84.4759   67.8417   32.6833 R1         2 LUT      0.104030
    189 H373       86.9405   64.3950   35.6776 T4         2 LUT      0.089537
    190 H372       88.5635   64.4775   36.1045 T4         2 LUT      0.089537
    191 H371       87.4887   65.4849   36.8972 T4         2 LUT      0.089537
    192 H363       88.9938   68.1500   34.5683 T4         2 LUT      0.089537
    193 H362       88.5225   67.8043   36.2603 T4         2 LUT      0.089537
    194 H361       89.8870   66.9703   35.5020 T4         2 LUT      0.089537
    195 H222       89.7495   65.3340   33.9371 U2         2 LUT      0.127376
    196 H221       88.2470   64.6363   33.4110 U2         2 LUT      0.127376
    197 H203       74.5544   64.5952   40.1309 R7         2 LUT      0.087068
    198 H202       74.9007   62.9761   40.4859 R7         2 LUT      0.087068
    199 H201       73.2700   63.5842   40.8271 R7         2 LUT      0.087068
    200 H193       69.7570   62.0999   43.3426 R4         2 LUT      0.089716
    201 H192       70.6293   60.8994   44.0505 R4         2 LUT      0.089716
    202 H191       69.1542   61.4593   44.6843 R4         2 LUT      0.089716
    203 H183       67.6371   65.9320   47.3133 R1         2 LUT      0.094572
    204 H182       66.8548   64.4613   46.8569 R1         2 LUT      0.094572
    205 H181       66.2893   65.5846   48.1397 R1         2 LUT      0.094572
    206 H173       69.6820   63.5229   51.2648 T4         2 LUT      0.093752
    207 H172       69.7190   61.8658   51.8163 T4         2 LUT      0.093752
    208 H171       70.7661   62.4342   50.4871 T4         2 LUT      0.093752
    209 H163       68.9167   60.4364   48.3134 T4         2 LUT      0.093752
    210 H162       70.3520   60.6492   49.0655 T4         2 LUT      0.093752
    211 H161       69.0475   59.8582   49.9426 T4         2 LUT      0.093752
    212 HO3        66.9993   63.3323   52.6762 Q1         2 LUT      0.300121
    213 H8         70.8376   63.6768   47.1789 U7         2 LUT      0.080784
    214 H7         68.1763   62.2559   46.7432 U6         2 LUT      0.042190
    215 H42        66.5932   65.1069   50.2846 U5         2 LUT      0.145166
    216 H41        68.0895   64.6592   50.8584 U5         2 LUT      0.145166
    217 H35        78.2496   66.4801   42.2527 T3         2 LUT      0.077919
    218 H34        78.8066   65.2505   39.5330 T2         2 LUT      0.073626
    219 H32        80.6453   65.8195   38.3801 T1         2 LUT      0.092510
    220 H31        82.6289   67.6383   39.7844 U9         2 LUT      0.070048
    221 H30        82.5702   66.0942   37.0225 U8         2 LUT      0.085442
    222 H3         65.8440   63.0135   50.0886 U3         2 LUT     -0.031596
    223 H28        84.4564   66.0467   35.6269 U7         2 LUT      0.084728
    224 H27        86.3086   68.5283   35.6266 U6         2 LUT      0.087291
    225 H26        85.8350   65.9572   34.0019 Q6         2 LUT      0.075325
    226 H24        87.6784   67.8757   31.1090 Q5         2 LUT      0.094482
    227 H23        89.7597   67.2695   32.4317 U3         2 LUT     -0.024869
    228 H22        66.7724   61.2458   49.8493 U2         2 LUT      0.127376
    229 H21        67.4507   61.1578   51.2776 U2         2 LUT      0.127376
    230 H15        76.9267   64.3021   40.5853 T3         2 LUT      0.093200
    231 H14        76.1799   65.5539   43.3742 T2         2 LUT      0.068865
    232 H12        73.9932   64.7760   44.1551 T1         2 LUT      0.095507
    233 H11        72.3120   62.6941   42.7686 U9         2 LUT      0.068930
    234 H10        72.1626   64.3711   45.4241 U8         2 LUT      0.083911
    235 H1         89.4931   66.1204   30.5249 Q1         2 LUT      0.297311
@<TRIPOS>BOND
    1     6     1 1
    2     7     2 1
    3     8     3 1
    4     9     4 1
    5    11     4 1
    6    12     6 1
    7    13     9 1
    8    16     9 1
    9    25     5 1
   10    25    16 1
   11    26    10 1
   12    26    17 1
   13    27    18 1
   14    28    14 1
   15    28    19 1
   16    29    12 1
   17    30    13 1
   18    31    24 1
   19    32     1 1
   20    32    25 1
   21    33    21 1
   22    33    26 1
   23    34    22 1
   24    34    27 1
   25    35    23 1
   26    35    28 1
   27    36    12 1
   28    36    24 1
   29    37    13 1
   30    37    15 1
   31    38    31 1
   32    39    20 1
   33    39    32 1
   34    40     2 1
   35    40    33 1
   36    41     3 1
   37    41    34 1
   38    42     4 1
   39    42    35 1
   40    43    38 1
   41    44     5 1
   42    44    17 1
   43    44    39 1
   44    45    10 1
   45    45    18 1
   46    45    40 1
   47    46    19 1
   48    46    41 1
   49    47    14 1
   50    47    16 1
   51    47    42 1
   52    48    38 1
   53    49    48 1
   54    50    49 1
   55    51    50 1
   56    52    51 1
   57    53    51 1
   58    54    53 1
   59    55    54 1
   60    56    55 1
   61    57    56 1
   62    58    56 1
   63    59    58 1
   64    60    59 1
   65    61    60 1
   66    62    61 1
   67    63    61 1
   68    64    27 1
   69    64    46 1
   70    65     5 1
   71    65    10 1
   72    65    64 1
   73    65    14 1
   74    66    23 1
   75    67    23 1
   76    68    23 1
   77    69    22 1
   78    70    22 1
   79    71    22 1
   80    72    21 1
   81    73    21 1
   82    74    21 1
   83    75    20 1
   84    76    20 1
   85    77    20 1
   86    78    15 1
   87    79    15 1
   88    80    15 1
   89    81     8 1
   90    82     8 1
   91    83     8 1
   92    84     7 1
   93    85     7 1
   94    86     6 1
   95    87     6 1
   96    88     3 1
   97    89     3 1
   98    90     1 1
   99    91     1 1
  100    92    63 1
  101    93    63 1
  102    94    63 1
  103    95    62 1
  104    96    62 1
  105    97    62 1
  106    98    60 1
  107    99    60 1
  108   100    59 1
  109   101    59 1
  110   102    58 1
  111   103    58 1
  112   104    57 1
  113   105    57 1
  114   106    57 1
  115   107    55 1
  116   108    55 1
  117   109    54 1
  118   110    54 1
  119   111    53 1
  120   112    53 1
  121   113    19 1
  122   114    18 1
  123   115    17 1
  124   116     9 1
  125   117     2 1
  126   118    52 1
  127   119    52 1
  128   120    52 1
  129   121    51 1
  130   122    50 1
  131   123    50 1
  132   124    49 1
  133   125    49 1
  134   126    48 1
  135   127    48 1
  136   128    43 1
  137   129    43 1
  138   130    43 1
  139   131    39 1
  140   132    32 1
  141   133    31 1
  142   134    61 1
  143   135    56 1
  144   136    24 1
  145   137    24 1
  146   139   138 1
  147   140   139 1
  148   141   140 1
  149   142   140 1
  150   143   142 1
  151   144   138 1
  152   144   143 1
  153   145   144 1
  154   146   145 1
  155   147   146 1
  156   148   147 1
  157   149   148 1
  158   150   149 1
  159   151   150 1
  160   152   151 1
  161   153   152 1
  162   154   138 1
  163   155   138 1
  164   156   143 1
  165   157   147 1
  166   158   151 1
  167   160   159 1
  168   161   160 1
  169   162   161 1
  170   163   161 1
  171   164   163 1
  172   165   159 1
  173   165   164 1
  174   166   165 1
  175   167   166 1
  176   168   167 1
  177   169   168 1
  178   170   169 1
  179   171   170 1
  180   172   171 1
  181   173   172 1
  182   174   153 1
  183   174   173 1
  184   175   159 1
  185   176   159 1
  186   177   164 1
  187   178   168 1
  188   179   172 1
  189   180   179 1
  190   181   179 1
  191   182   179 1
  192   183   178 1
  193   184   178 1
  194   185   178 1
  195   186   177 1
  196   187   177 1
  197   188   177 1
  198   189   176 1
  199   190   176 1
  200   191   176 1
  201   192   175 1
  202   193   175 1
  203   194   175 1
  204   195   160 1
  205   196   160 1
  206   197   158 1
  207   198   158 1
  208   199   158 1
  209   200   157 1
  210   201   157 1
  211   202   157 1
  212   203   156 1
  213   204   156 1
  214   205   156 1
  215   206   155 1
  216   207   155 1
  217   208   155 1
  218   209   154 1
  219   210   154 1
  220   211   154 1
  221   212   141 1
  222   213   146 1
  223   214   145 1
  224   215   142 1
  225   216   142 1
  226   217   174 1
  227   218   173 1
  228   219   171 1
  229   220   170 1
  230   221   169 1
  231   222   140 1
  232   223   167 1
  233   224   166 1
  234   225   165 1
  235   226   163 1
  236   227   161 1
  237   228   139 1
  238   229   139 1
  239   230   153 1
  240   231   152 1
  241   232   150 1
  242   233   149 1
  243   234   148 1
  244   235   162 1
  245   65    153 1
  246   65    174 1
@<TRIPOS>SUBSTRUCTURE
      1 CLA               1 ****               0 ****  **** 
      2 LUT             138 ****               0 ****  **** 
