@<TRIPOS>MOLECULE
Cpptraj generated mol2 file.
  235   246     2     0     0
SMALL
USER_CHARGES


@<TRIPOS>ATOM
      1 CAA        79.1114   59.0920   34.2132 a2         1 CLA     -0.055900
      2 CAB        78.5927   62.1028   43.3254 c8         1 CLA     -0.148500
      3 CAC        71.9306   57.7020   42.3602 a2         1 CLA     -0.012600
      4 CAD        75.0779   56.1732   34.9146 ck         1 CLA      0.398800
      5 NA         78.0637   59.0430   37.6351 ns         1 CLA     -0.225500
      6 CBA        80.4361   59.1353   33.3587 a2         1 CLA     -0.135000
      7 CBB        78.7048   61.2866   44.4076 c0         1 CLA     -0.395200
      8 CBC        71.7753   56.1278   42.3522 a3         1 CLA     -0.037700
      9 CBD        76.5538   56.7769   34.7318 a1         1 CLA     -0.053900
     10 NB         77.6829   60.4089   40.2336 nm         1 CLA     -0.295700
     11 OBD        74.4427   55.5868   34.0382 o2         1 CLA     -0.494600
     12 CGA        81.1447   57.8583   32.8838 c4         1 CLA      0.827000
     13 CGD        77.5600   55.6861   34.3732 c4         1 CLA      0.655300
     14 ND         75.3810   57.8319   38.0824 nm         1 CLA     -0.291600
     15 CED        78.0823   53.3361   34.3486 a3         1 CLA      0.005400
     16 CHA        76.8653   57.5373   36.0825 cs         1 CLA     -0.123800
     17 CHB        79.6124   60.5586   38.6602 aa         1 CLA     -0.291900
     18 CHC        76.3833   60.2606   42.3453 aa         1 CLA     -0.090400
     19 CHD        73.4390   57.5281   39.6480 aa         1 CLA     -0.052000
     20 CMA        81.4329   58.5012   37.0774 a3         1 CLA     -0.230700
     21 CMB        80.7156   62.3932   40.9222 a3         1 CLA     -0.180800
     22 CMC        74.0984   59.4754   44.2522 a3         1 CLA     -0.134000
     23 CMD        72.3883   55.9476   36.9233 a3         1 CLA     -0.141100
     24 C1         82.2221   55.9610   33.5775 a2         1 CLA      0.023000
     25 C1A        78.0221   58.3029   36.4605 ac         1 CLA     -0.015100
     26 C1B        78.9501   60.8984   39.9069 cr         1 CLA      0.054700
     27 C1C        75.3082   59.4149   41.9973 cn         1 CLA     -0.005600
     28 C1D        74.1197   57.3501   38.3589 ap         1 CLA     -0.047300
     29 O1A        80.9802   57.3095   31.7994 o2         1 CLA     -0.610800
     30 O1D        78.5779   55.9011   33.7498 o2         1 CLA     -0.558200
     31 C2         83.2501   55.5595   34.5743 c8         1 CLA     -0.325100
     32 C2A        79.3635   58.4742   35.6217 a1         1 CLA      0.098600
     33 C2B        79.4143   61.7185   40.9462 cb         1 CLA      0.088500
     34 C2C        74.1540   59.0212   42.7981 cb         1 CLA      0.053700
     35 C2D        73.6981   56.5650   37.1612 cb         1 CLA      0.058900
     36 O2A        81.9953   57.3409   33.7983 o1         1 CLA     -0.437200
     37 O2D        77.2755   54.4402   34.8810 o1         1 CLA     -0.357600
     38 C3         84.4236   54.8419   34.4837 c5         1 CLA      0.031200
     39 C3A        80.2195   59.3278   36.6125 a1         1 CLA      0.166800
     40 C3B        78.4922   61.6167   42.0203 cb         1 CLA      0.035000
     41 C3C        73.2852   58.3036   41.9881 cb         1 CLA     -0.089900
     42 C3D        74.7094   56.6129   36.2834 cb         1 CLA     -0.035900
     43 C4         84.5490   53.3744   34.7789 a3         1 CLA     -0.053300
     44 C4A        79.2664   59.6760   37.7310 ac         1 CLA      0.001800
     45 C4B        77.4353   60.7048   41.5443 cn         1 CLA     -0.020900
     46 C4C        73.9157   58.2995   40.6984 cr         1 CLA     -0.044400
     47 C4D        75.7187   57.3752   36.8579 c6         1 CLA     -0.046000
     48 C5         85.7147   55.6379   34.6337 a2         1 CLA     -0.070400
     49 C6         85.8707   56.9084   35.5840 a2         1 CLA      0.043900
     50 C7         85.7777   56.5536   37.0444 a2         1 CLA     -0.150000
     51 C8         85.6907   57.7780   38.1015 a1         1 CLA      0.064200
     52 C9         87.0076   58.6132   38.0750 a3         1 CLA     -0.259300
     53 C10        85.3068   57.3539   39.5529 a2         1 CLA     -0.071900
     54 C11        84.9588   58.4170   40.5740 a2         1 CLA      0.014500
     55 C12        85.2493   57.9999   42.0858 a2         1 CLA     -0.112100
     56 C13        84.6716   58.9886   43.1612 a1         1 CLA      0.089200
     57 C14        85.1137   60.5121   42.8551 a3         1 CLA     -0.239100
     58 C15        85.1364   58.7122   44.6315 a2         1 CLA     -0.102200
     59 C16        84.4957   57.4104   45.2647 a2         1 CLA      0.023900
     60 C17        84.9283   57.0316   46.7180 a2         1 CLA     -0.105700
     61 C18        84.3511   55.6852   47.2681 a1         1 CLA      0.206800
     62 C19        84.9488   54.3684   46.6423 a3         1 CLA     -0.280100
     63 C20        84.6431   55.6918   48.8235 a3         1 CLA     -0.280100
     64 NC         75.0994   58.9646   40.6988 nx         1 CLA     -0.309200
     65 MG         76.5704   59.2096   39.1292 mg         1 CLA      0.895000
     66 HMD3       72.3964   55.2869   36.0377 dc         1 CLA      0.064300
     67 HMD2       72.1674   55.3466   37.7839 dc         1 CLA      0.064300
     68 HMD1       71.5945   56.8179   36.8041 dc         1 CLA      0.064300
     69 HMC3       75.0840   59.9100   44.6260 dc         1 CLA      0.052100
     70 HMC2       73.3580   60.2787   44.2534 dc         1 CLA      0.052100
     71 HMC1       73.8176   58.6275   44.8334 dc         1 CLA      0.052100
     72 HMB3       80.7396   63.0076   39.9966 dc         1 CLA      0.063600
     73 HMB2       80.7551   63.1677   41.6883 dc         1 CLA      0.063600
     74 HMB1       81.4629   61.6458   40.8146 dc         1 CLA      0.063600
     75 HMA3       82.0161   58.3056   36.1316 dc         1 CLA      0.058300
     76 HMA2       82.0519   59.0610   37.7829 dc         1 CLA      0.058300
     77 HMA1       81.1505   57.5897   37.5457 dc         1 CLA      0.058300
     78 HED3       77.5523   52.4226   34.5997 dc         1 CLA      0.079300
     79 HED2       78.1854   53.4478   33.2905 dc         1 CLA      0.079300
     80 HED1       79.1036   53.2681   34.6937 dc         1 CLA      0.079300
     81 HBC3       72.0750   55.7082   41.3902 dc         1 CLA      0.016300
     82 HBC2       72.3126   55.5766   43.1379 dc         1 CLA      0.016300
     83 HBC1       70.7360   55.8306   42.4653 dc         1 CLA      0.016300
     84 HBB2       79.1462   61.6023   45.3394 da         1 CLA      0.183000
     85 HBB1       78.6197   60.2040   44.3678 da         1 CLA      0.183000
     86 HBA2       80.1666   59.8290   32.4931 dc         1 CLA      0.029400
     87 HBA1       81.2945   59.6250   33.8217 dc         1 CLA      0.029400
     88 HAC2       71.6001   58.0042   43.3464 dc         1 CLA      0.029300
     89 HAC1       71.2065   58.1027   41.6847 dc         1 CLA      0.029300
     90 HAA2       78.4389   58.5170   33.5747 dc         1 CLA      0.028700
     91 HAA1       78.6170   60.0655   34.4283 dc         1 CLA      0.028700
     92 H203       85.6746   55.5397   49.1653 dc         1 CLA      0.065600
     93 H202       84.0536   56.4827   49.2372 dc         1 CLA      0.065600
     94 H201       84.0944   54.8384   49.2797 dc         1 CLA      0.065600
     95 H193       84.6094   54.1903   45.6158 dc         1 CLA      0.065600
     96 H192       85.9974   54.6249   46.6645 dc         1 CLA      0.065600
     97 H191       84.7705   53.5354   47.3542 dc         1 CLA      0.065600
     98 H172       85.9672   56.9036   46.6526 dc         1 CLA      0.027600
     99 H171       84.6794   57.7512   47.4934 dc         1 CLA      0.027600
    100 H162       83.4351   57.5658   45.2890 dc         1 CLA      0.002900
    101 H161       84.7499   56.6379   44.6362 dc         1 CLA      0.002900
    102 H152       86.2025   58.5471   44.5234 dc         1 CLA      0.029100
    103 H151       84.9997   59.4368   45.3933 dc         1 CLA      0.029100
    104 H143       86.1923   60.4626   42.7665 dc         1 CLA      0.063600
    105 H142       84.6115   60.8736   41.9810 dc         1 CLA      0.063600
    106 H141       84.9201   61.1201   43.7223 dc         1 CLA      0.063600
    107 H122       84.5807   57.0954   42.1891 dc         1 CLA      0.032500
    108 H121       86.2720   57.8547   42.2369 dc         1 CLA      0.032500
    109 H112       85.4556   59.2686   40.2624 dc         1 CLA      0.006600
    110 H111       83.9812   58.6765   40.4101 dc         1 CLA      0.006600
    111 H102       84.3552   56.7923   39.3594 dc         1 CLA      0.024100
    112 H101       86.0235   56.6805   39.9943 dc         1 CLA      0.024100
    113 HHD        72.5484   56.9057   39.7063 da         1 CLA      0.174300
    114 HHC        76.5085   60.6094   43.4043 da         1 CLA      0.136800
    115 HHB        80.6207   60.9598   38.5322 da         1 CLA      0.138300
    116 HBD        76.4205   57.4598   33.9148 dc         1 CLA      0.107700
    117 HAB        78.8636   63.1510   43.4431 da         1 CLA      0.155200
    118 H93        87.4136   58.7478   37.1359 dc         1 CLA      0.069500
    119 H92        86.8372   59.6765   38.4096 dc         1 CLA      0.069500
    120 H91        87.7837   58.1772   38.6276 dc         1 CLA      0.069500
    121 H8         84.8371   58.4317   37.7598 dc         1 CLA      0.029300
    122 H72        84.8980   55.8419   37.1841 dc         1 CLA      0.044400
    123 H71        86.6219   55.9492   37.2055 dc         1 CLA      0.044400
    124 H62        86.7744   57.4887   35.3465 dc         1 CLA      0.015600
    125 H61        84.9733   57.4179   35.2675 dc         1 CLA      0.015600
    126 H52        86.4092   54.9453   35.0893 dc         1 CLA      0.033200
    127 H51        86.1385   55.8927   33.6343 dc         1 CLA      0.033200
    128 H43        85.2287   52.8137   34.1292 dc         1 CLA      0.037000
    129 H42        84.9008   53.2658   35.8268 dc         1 CLA      0.037000
    130 H41        83.5686   52.8381   34.7796 dc         1 CLA      0.037000
    131 H3A        80.5429   60.2572   36.1767 dc         1 CLA      0.041100
    132 H2A        79.6340   57.4365   35.5210 dc         1 CLA      0.083100
    133 H2         82.9991   55.9421   35.5520 da         1 CLA      0.180900
    134 H18        83.2861   55.7622   47.1495 dc         1 CLA     -0.003900
    135 H13        83.5590   58.9685   43.2150 dc         1 CLA      0.019700
    136 H12        81.2684   55.4466   33.5328 dc         1 CLA      0.120400
    137 H11        82.8083   55.8201   32.6693 dc         1 CLA      0.120400
    138 C1         69.4742   61.1983   50.3513 Z1         2 LUT      0.509236
    139 C2         69.0366   61.9008   51.6598 Z2         2 LUT     -0.434695
    140 C3         67.5583   62.3581   51.6150 Z3         2 LUT      0.437453
    141 O3         67.2652   63.1482   52.8261 S1         2 LUT     -0.547129
    142 C4         67.3881   63.2909   50.3634 Z4         2 LUT     -0.468603
    143 C5         68.1056   62.9292   49.0910 Z5         2 LUT      0.279246
    144 C6         69.0981   62.0045   49.0798 Z6         2 LUT     -0.305473
    145 C7         69.8019   61.6253   47.8527 Z7         2 LUT      0.069402
    146 C8         70.5434   62.4092   47.0631 Z8         2 LUT     -0.191631
    147 C9         71.1093   62.0884   45.7425 Z9         2 LUT      0.196698
    148 C10        72.0737   62.9719   45.2247 Y1         2 LUT     -0.208611
    149 C11        72.7618   62.9265   43.8963 Y2         2 LUT      0.030784
    150 C12        73.8194   63.6228   43.5119 Y3         2 LUT     -0.220316
    151 C13        74.5786   63.4783   42.3415 Y4         2 LUT      0.215937
    152 C14        75.8780   64.0100   42.2839 Y5         2 LUT     -0.185793
    153 C15        76.7353   64.1958   41.1949 Y6         2 LUT     -0.057835
    154 C16        68.7550   59.8230   50.2888 Y7         2 LUT     -0.405615
    155 C17        70.9535   60.7710   50.4893 Y7         2 LUT     -0.405615
    156 C18        67.6516   63.8078   47.9291 Y9         2 LUT     -0.369639
    157 C19        70.6060   60.8957   45.0304 W1         2 LUT     -0.333362
    158 C20        73.8974   62.8037   41.1680 W2         2 LUT     -0.323439
    159 C21        87.7507   65.5227   34.2201 Z1         2 LUT      0.406104
    160 C22        88.3941   65.1064   32.8816 Z2         2 LUT     -0.404965
    161 C23        88.5053   66.3131   31.8835 Z3         2 LUT      0.391255
    162 O23        89.0547   65.8638   30.5744 S1         2 LUT     -0.528210
    163 C24        87.1637   67.0459   31.8238 W6         2 LUT     -0.258361
    164 C25        86.2132   67.1096   32.8000 Z5         2 LUT      0.133546
    165 C26        86.3536   66.1794   34.0199 W8         2 LUT     -0.147008
    166 C27        85.7731   66.7466   35.2677 Z7         2 LUT      0.023843
    167 C28        84.6547   66.2620   35.8834 Z8         2 LUT     -0.216987
    168 C29        84.0972   66.5903   37.2743 Z9         2 LUT      0.206524
    169 C30        82.8936   66.0043   37.4951 Y1         2 LUT     -0.215556
    170 C31        82.0985   66.1932   38.6645 Y2         2 LUT      0.025142
    171 C32        80.9395   65.5685   39.0594 Y3         2 LUT     -0.212209
    172 C33        80.0903   65.7220   40.2142 Y4         2 LUT      0.240937
    173 C34        78.8108   65.1333   40.1973 Y5         2 LUT     -0.218862
    174 C35        77.8951   64.9551   41.2270 Y6         2 LUT     -0.023547
    175 C36        88.7141   66.4941   34.9660 Y7         2 LUT     -0.393485
    176 C37        87.7322   64.1504   35.0805 Y7         2 LUT     -0.393485
    177 C38        84.9788   67.9144   32.6741 Y9         2 LUT     -0.387526
    178 C39        84.7556   67.7139   38.1235 W1         2 LUT     -0.322618
    179 C40        80.4864   66.7777   41.2657 W2         2 LUT     -0.358472
    180 H403       80.7400   67.6712   40.7511 R7         2 LUT      0.097720
    181 H402       79.6695   67.0310   41.8933 R7         2 LUT      0.097720
    182 H401       81.3058   66.5945   41.9508 R7         2 LUT      0.097720
    183 H393       84.5320   67.8292   39.2239 R4         2 LUT      0.082505
    184 H392       85.8195   67.6430   37.9741 R4         2 LUT      0.082505
    185 H391       84.5660   68.6641   37.6890 R4         2 LUT      0.082505
    186 H383       84.9516   68.6912   33.4570 R1         2 LUT      0.104030
    187 H382       84.8913   68.3631   31.6926 R1         2 LUT      0.104030
    188 H381       84.0661   67.2273   32.8236 R1         2 LUT      0.104030
    189 H373       87.1423   63.3994   34.5973 T4         2 LUT      0.089537
    190 H372       88.7021   63.7831   35.3354 T4         2 LUT      0.089537
    191 H371       87.2593   64.3273   36.0542 T4         2 LUT      0.089537
    192 H363       88.6389   66.3778   36.0865 T4         2 LUT      0.089537
    193 H362       89.8088   66.2938   34.7595 T4         2 LUT      0.089537
    194 H361       88.5906   67.5904   34.8486 T4         2 LUT      0.089537
    195 H222       89.4199   64.6899   32.7871 U2         2 LUT      0.127376
    196 H221       87.6023   64.5400   32.4438 U2         2 LUT      0.127376
    197 H203       74.1961   63.3475   40.2647 R7         2 LUT      0.087068
    198 H202       74.1818   61.7678   41.0168 R7         2 LUT      0.087068
    199 H201       72.8489   62.9282   41.0864 R7         2 LUT      0.087068
    200 H193       69.6192   60.9354   44.7575 R4         2 LUT      0.089716
    201 H192       71.1905   60.6514   44.1768 R4         2 LUT      0.089716
    202 H191       70.7369   60.0555   45.6427 R4         2 LUT      0.089716
    203 H183       66.5761   64.1339   48.0736 R1         2 LUT      0.094572
    204 H182       68.1859   64.7504   48.0031 R1         2 LUT      0.094572
    205 H181       67.7680   63.2601   47.0241 R1         2 LUT      0.094572
    206 H173       71.2154   60.0098   51.2512 T4         2 LUT      0.093752
    207 H172       71.3771   60.4365   49.5364 T4         2 LUT      0.093752
    208 H171       71.5248   61.6433   50.7039 T4         2 LUT      0.093752
    209 H163       68.6504   59.1133   51.1167 T4         2 LUT      0.093752
    210 H162       67.7533   60.0164   49.8157 T4         2 LUT      0.093752
    211 H161       69.1308   59.1976   49.5155 T4         2 LUT      0.093752
    212 HO3        66.9049   62.5513   53.4962 Q1         2 LUT      0.300121
    213 H8         70.7675   63.4948   47.3103 U7         2 LUT      0.080784
    214 H7         69.5927   60.6557   47.4250 U6         2 LUT      0.042190
    215 H42        66.2545   63.2913   50.1941 U5         2 LUT      0.145166
    216 H41        67.6235   64.3025   50.4872 U5         2 LUT      0.145166
    217 H35        78.0391   65.5384   42.1882 T3         2 LUT      0.077919
    218 H34        78.4973   64.6263   39.2750 T2         2 LUT      0.073626
    219 H32        80.6922   64.8461   38.3254 T1         2 LUT      0.092510
    220 H31        82.4428   66.9319   39.3719 U9         2 LUT      0.070048
    221 H30        82.5938   65.2662   36.8208 U8         2 LUT      0.085442
    222 H3         66.8170   61.5580   51.3498 U3         2 LUT     -0.031596
    223 H28        84.0142   65.4983   35.4296 U7         2 LUT      0.084728
    224 H27        86.3801   67.5202   35.7513 U6         2 LUT      0.087291
    225 H26        85.6651   65.2866   33.8724 Q6         2 LUT      0.075325
    226 H24        86.9905   67.7030   31.0082 Q5         2 LUT      0.094482
    227 H23        89.2846   66.9850   32.3951 U3         2 LUT     -0.024869
    228 H22        69.1242   61.1809   52.5005 U2         2 LUT      0.127376
    229 H21        69.5966   62.8459   51.8264 U2         2 LUT      0.127376
    230 H15        76.3827   63.8220   40.2269 T3         2 LUT      0.093200
    231 H14        76.1898   64.5341   43.1859 T2         2 LUT      0.068865
    232 H12        74.2099   64.3427   44.3246 T1         2 LUT      0.095507
    233 H11        72.3881   62.2494   43.1212 U9         2 LUT      0.068930
    234 H10        72.2642   63.8409   45.8431 U8         2 LUT      0.083911
    235 H1         88.3803   65.3011   30.1190 Q1         2 LUT      0.297311
@<TRIPOS>BOND
    1     6     1 1
    2     7     2 1
    3     8     3 1
    4     9     4 1
    5    11     4 1
    6    12     6 1
    7    13     9 1
    8    16     9 1
    9    25     5 1
   10    25    16 1
   11    26    10 1
   12    26    17 1
   13    27    18 1
   14    28    14 1
   15    28    19 1
   16    29    12 1
   17    30    13 1
   18    31    24 1
   19    32     1 1
   20    32    25 1
   21    33    21 1
   22    33    26 1
   23    34    22 1
   24    34    27 1
   25    35    23 1
   26    35    28 1
   27    36    12 1
   28    36    24 1
   29    37    13 1
   30    37    15 1
   31    38    31 1
   32    39    20 1
   33    39    32 1
   34    40     2 1
   35    40    33 1
   36    41     3 1
   37    41    34 1
   38    42     4 1
   39    42    35 1
   40    43    38 1
   41    44     5 1
   42    44    17 1
   43    44    39 1
   44    45    10 1
   45    45    18 1
   46    45    40 1
   47    46    19 1
   48    46    41 1
   49    47    14 1
   50    47    16 1
   51    47    42 1
   52    48    38 1
   53    49    48 1
   54    50    49 1
   55    51    50 1
   56    52    51 1
   57    53    51 1
   58    54    53 1
   59    55    54 1
   60    56    55 1
   61    57    56 1
   62    58    56 1
   63    59    58 1
   64    60    59 1
   65    61    60 1
   66    62    61 1
   67    63    61 1
   68    64    27 1
   69    64    46 1
   70    65     5 1
   71    65    10 1
   72    65    64 1
   73    65    14 1
   74    66    23 1
   75    67    23 1
   76    68    23 1
   77    69    22 1
   78    70    22 1
   79    71    22 1
   80    72    21 1
   81    73    21 1
   82    74    21 1
   83    75    20 1
   84    76    20 1
   85    77    20 1
   86    78    15 1
   87    79    15 1
   88    80    15 1
   89    81     8 1
   90    82     8 1
   91    83     8 1
   92    84     7 1
   93    85     7 1
   94    86     6 1
   95    87     6 1
   96    88     3 1
   97    89     3 1
   98    90     1 1
   99    91     1 1
  100    92    63 1
  101    93    63 1
  102    94    63 1
  103    95    62 1
  104    96    62 1
  105    97    62 1
  106    98    60 1
  107    99    60 1
  108   100    59 1
  109   101    59 1
  110   102    58 1
  111   103    58 1
  112   104    57 1
  113   105    57 1
  114   106    57 1
  115   107    55 1
  116   108    55 1
  117   109    54 1
  118   110    54 1
  119   111    53 1
  120   112    53 1
  121   113    19 1
  122   114    18 1
  123   115    17 1
  124   116     9 1
  125   117     2 1
  126   118    52 1
  127   119    52 1
  128   120    52 1
  129   121    51 1
  130   122    50 1
  131   123    50 1
  132   124    49 1
  133   125    49 1
  134   126    48 1
  135   127    48 1
  136   128    43 1
  137   129    43 1
  138   130    43 1
  139   131    39 1
  140   132    32 1
  141   133    31 1
  142   134    61 1
  143   135    56 1
  144   136    24 1
  145   137    24 1
  146   139   138 1
  147   140   139 1
  148   141   140 1
  149   142   140 1
  150   143   142 1
  151   144   138 1
  152   144   143 1
  153   145   144 1
  154   146   145 1
  155   147   146 1
  156   148   147 1
  157   149   148 1
  158   150   149 1
  159   151   150 1
  160   152   151 1
  161   153   152 1
  162   154   138 1
  163   155   138 1
  164   156   143 1
  165   157   147 1
  166   158   151 1
  167   160   159 1
  168   161   160 1
  169   162   161 1
  170   163   161 1
  171   164   163 1
  172   165   159 1
  173   165   164 1
  174   166   165 1
  175   167   166 1
  176   168   167 1
  177   169   168 1
  178   170   169 1
  179   171   170 1
  180   172   171 1
  181   173   172 1
  182   174   153 1
  183   174   173 1
  184   175   159 1
  185   176   159 1
  186   177   164 1
  187   178   168 1
  188   179   172 1
  189   180   179 1
  190   181   179 1
  191   182   179 1
  192   183   178 1
  193   184   178 1
  194   185   178 1
  195   186   177 1
  196   187   177 1
  197   188   177 1
  198   189   176 1
  199   190   176 1
  200   191   176 1
  201   192   175 1
  202   193   175 1
  203   194   175 1
  204   195   160 1
  205   196   160 1
  206   197   158 1
  207   198   158 1
  208   199   158 1
  209   200   157 1
  210   201   157 1
  211   202   157 1
  212   203   156 1
  213   204   156 1
  214   205   156 1
  215   206   155 1
  216   207   155 1
  217   208   155 1
  218   209   154 1
  219   210   154 1
  220   211   154 1
  221   212   141 1
  222   213   146 1
  223   214   145 1
  224   215   142 1
  225   216   142 1
  226   217   174 1
  227   218   173 1
  228   219   171 1
  229   220   170 1
  230   221   169 1
  231   222   140 1
  232   223   167 1
  233   224   166 1
  234   225   165 1
  235   226   163 1
  236   227   161 1
  237   228   139 1
  238   229   139 1
  239   230   153 1
  240   231   152 1
  241   232   150 1
  242   233   149 1
  243   234   148 1
  244   235   162 1
  245   65    153 1
  246   65    174 1
@<TRIPOS>SUBSTRUCTURE
      1 CLA               1 ****               0 ****  **** 
      2 LUT             138 ****               0 ****  **** 
