@<TRIPOS>MOLECULE
Cpptraj generated mol2 file.
  235   246     2     0     0
SMALL
USER_CHARGES


@<TRIPOS>ATOM
      1 CAA        77.3417   58.5365   34.9192 a2         1 CLA     -0.055900
      2 CAB        77.3785   62.8374   43.8952 c8         1 CLA     -0.148500
      3 CAC        70.7076   58.1271   43.6020 a2         1 CLA     -0.012600
      4 CAD        73.3320   56.0447   36.2404 ck         1 CLA      0.398800
      5 NA         76.3317   59.3103   38.4181 ns         1 CLA     -0.225500
      6 CBA        78.5468   58.0739   34.0817 a2         1 CLA     -0.135000
      7 CBB        76.3793   63.3875   44.6288 c0         1 CLA     -0.395200
      8 CBC        70.9743   56.6791   43.9426 a3         1 CLA     -0.037700
      9 CBD        74.7164   56.7390   35.9225 a1         1 CLA     -0.053900
     10 NB         76.2754   60.6061   41.0742 nm         1 CLA     -0.295700
     11 OBD        72.8253   55.1706   35.5192 o2         1 CLA     -0.494600
     12 CGA        78.8401   56.5924   33.9601 c4         1 CLA      0.827000
     13 CGD        75.6423   55.5514   35.8061 c4         1 CLA      0.655300
     14 ND         73.5508   58.1704   39.1267 nm         1 CLA     -0.291600
     15 CED        76.6361   53.7400   36.9554 a3         1 CLA      0.005400
     16 CHA        74.9645   57.7617   37.0370 cs         1 CLA     -0.123800
     17 CHB        78.1170   60.6519   39.4441 aa         1 CLA     -0.291900
     18 CHC        74.9648   60.7653   43.1188 aa         1 CLA     -0.090400
     19 CHD        71.8487   57.7976   40.8009 aa         1 CLA     -0.052000
     20 CMA        79.9261   58.9517   37.2784 a3         1 CLA     -0.230700
     21 CMB        79.4125   62.6794   41.4126 a3         1 CLA     -0.180800
     22 CMC        72.5851   60.0563   45.1329 a3         1 CLA     -0.134000
     23 CMD        70.7498   55.6481   38.7326 a3         1 CLA     -0.141100
     24 C1         80.0940   54.7852   35.0701 a2         1 CLA      0.023000
     25 C1A        76.1209   58.5379   37.2840 ac         1 CLA     -0.015100
     26 C1B        77.5249   61.0773   40.6362 cr         1 CLA      0.054700
     27 C1C        73.7507   60.0626   42.8241 cn         1 CLA     -0.005600
     28 C1D        72.3403   57.6245   39.4760 ap         1 CLA     -0.047300
     29 O1A        78.5096   55.8738   33.0676 o2         1 CLA     -0.610800
     30 O1D        76.3179   55.1633   34.8246 o2         1 CLA     -0.558200
     31 C2         80.9669   54.5349   36.2827 c8         1 CLA     -0.325100
     32 C2A        77.4871   58.3154   36.5275 a1         1 CLA      0.098600
     33 C2B        78.0501   61.9417   41.5907 cb         1 CLA      0.088500
     34 C2C        72.6604   59.7279   43.7425 cb         1 CLA      0.053700
     35 C2D        71.9289   56.6102   38.4979 cb         1 CLA      0.058900
     36 O2A        79.5753   56.2212   35.0951 o1         1 CLA     -0.437200
     37 O2D        75.7435   54.9408   37.0333 o1         1 CLA     -0.357600
     38 C3         81.7418   53.4367   36.3715 c5         1 CLA      0.031200
     39 C3A        78.4023   59.3446   37.2362 a1         1 CLA      0.166800
     40 C3B        77.2053   61.9831   42.6664 cb         1 CLA      0.035000
     41 C3C        71.8718   58.8529   43.0301 cb         1 CLA     -0.089900
     42 C3D        72.8820   56.6535   37.4853 cb         1 CLA     -0.035900
     43 C4         81.2269   52.1686   36.9695 a3         1 CLA     -0.053300
     44 C4A        77.6284   59.7511   38.4622 ac         1 CLA      0.001800
     45 C4B        76.0663   61.1081   42.3090 cn         1 CLA     -0.020900
     46 C4C        72.3922   58.7322   41.7154 cr         1 CLA     -0.044400
     47 C4D        73.8543   57.6384   37.9126 c6         1 CLA     -0.046000
     48 C5         83.1086   53.5638   35.6723 a2         1 CLA     -0.070400
     49 C6         84.0591   54.6586   36.2887 a2         1 CLA      0.043900
     50 C7         84.3370   54.7755   37.8226 a2         1 CLA     -0.150000
     51 C8         85.4261   55.7409   38.2876 a1         1 CLA      0.064200
     52 C9         86.8481   55.1886   38.0717 a3         1 CLA     -0.259300
     53 C10        85.1541   56.3370   39.6718 a2         1 CLA     -0.071900
     54 C11        84.0012   57.3046   39.9487 a2         1 CLA      0.014500
     55 C12        84.0658   58.2059   41.2471 a2         1 CLA     -0.112100
     56 C13        84.2932   57.4964   42.5404 a1         1 CLA      0.089200
     57 C14        83.3517   56.4580   42.9254 a3         1 CLA     -0.239100
     58 C15        84.4581   58.4950   43.7370 a2         1 CLA     -0.102200
     59 C16        83.3166   59.4282   44.0778 a2         1 CLA      0.023900
     60 C17        83.7639   60.3571   45.2663 a2         1 CLA     -0.105700
     61 C18        82.6259   61.3029   45.9414 a1         1 CLA      0.206800
     62 C19        83.1002   62.1759   47.0559 a3         1 CLA     -0.280100
     63 C20        81.9815   62.1790   44.7991 a3         1 CLA     -0.280100
     64 NC         73.5542   59.4755   41.6297 nx         1 CLA     -0.309200
     65 MG         74.8796   59.5538   40.0652 mg         1 CLA      0.895000
     66 HMD3       70.6564   55.4255   39.7923 dc         1 CLA      0.064300
     67 HMD2       69.8800   56.2154   38.3780 dc         1 CLA      0.064300
     68 HMD1       70.8435   54.7462   38.1665 dc         1 CLA      0.064300
     69 HMC3       73.4296   60.5091   45.5702 dc         1 CLA      0.052100
     70 HMC2       71.6425   60.5576   45.2570 dc         1 CLA      0.052100
     71 HMC1       72.3742   59.1275   45.6605 dc         1 CLA      0.052100
     72 HMB3       79.5159   63.2932   40.5653 dc         1 CLA      0.063600
     73 HMB2       79.6661   63.3599   42.2224 dc         1 CLA      0.063600
     74 HMB1       80.1700   61.9282   41.3126 dc         1 CLA      0.063600
     75 HMA3       80.0828   57.8751   37.3898 dc         1 CLA      0.058300
     76 HMA2       80.3644   59.1635   36.3000 dc         1 CLA      0.058300
     77 HMA1       80.4356   59.4988   38.1406 dc         1 CLA      0.058300
     78 HED3       76.1183   52.9150   36.4847 dc         1 CLA      0.079300
     79 HED2       77.5456   53.9631   36.3124 dc         1 CLA      0.079300
     80 HED1       76.9370   53.4604   37.9981 dc         1 CLA      0.079300
     81 HBC3       71.1103   56.0831   43.0345 dc         1 CLA      0.016300
     82 HBC2       71.8491   56.6518   44.5072 dc         1 CLA      0.016300
     83 HBC1       70.1345   56.4501   44.5328 dc         1 CLA      0.016300
     84 HBB2       76.5105   64.1289   45.4757 da         1 CLA      0.183000
     85 HBB1       75.3562   63.3724   44.2869 da         1 CLA      0.183000
     86 HBA2       78.1629   58.3371   33.1280 dc         1 CLA      0.029400
     87 HBA1       79.3730   58.7515   34.2001 dc         1 CLA      0.029400
     88 HAC2       70.3071   58.6287   44.4851 dc         1 CLA      0.029300
     89 HAC1       69.8889   58.2469   42.8919 dc         1 CLA      0.029300
     90 HAA2       76.5134   57.9456   34.6237 dc         1 CLA      0.028700
     91 HAA1       77.1560   59.6093   34.6608 dc         1 CLA      0.028700
     92 H203       82.6006   63.0932   44.7760 dc         1 CLA      0.065600
     93 H202       81.7889   61.5768   43.8878 dc         1 CLA      0.065600
     94 H201       81.0266   62.5186   45.2107 dc         1 CLA      0.065600
     95 H193       83.9407   62.6923   46.6572 dc         1 CLA      0.065600
     96 H192       82.2622   62.8404   47.4874 dc         1 CLA      0.065600
     97 H191       83.6252   61.5379   47.7638 dc         1 CLA      0.065600
     98 H172       84.1288   59.8390   46.1462 dc         1 CLA      0.027600
     99 H171       84.4047   61.1189   44.9282 dc         1 CLA      0.027600
    100 H162       82.9970   59.8781   43.1565 dc         1 CLA      0.002900
    101 H161       82.4620   58.8418   44.4360 dc         1 CLA      0.002900
    102 H152       84.8047   57.9545   44.6216 dc         1 CLA      0.029100
    103 H151       85.2595   59.1333   43.4457 dc         1 CLA      0.029100
    104 H143       83.3117   55.6810   42.1687 dc         1 CLA      0.063600
    105 H142       83.6051   56.0115   43.9286 dc         1 CLA      0.063600
    106 H141       82.4728   57.0477   43.0024 dc         1 CLA      0.063600
    107 H122       84.7314   59.0456   41.2353 dc         1 CLA      0.032500
    108 H121       83.0639   58.6150   41.2412 dc         1 CLA      0.032500
    109 H112       83.9401   58.0201   39.1257 dc         1 CLA      0.006600
    110 H111       83.0062   56.8385   39.9793 dc         1 CLA      0.006600
    111 H102       85.1549   55.6851   40.5296 dc         1 CLA      0.024100
    112 H101       85.9975   56.9682   39.7408 dc         1 CLA      0.024100
    113 HHD        70.8217   57.5037   41.0274 da         1 CLA      0.174300
    114 HHC        74.9431   61.1626   44.1099 da         1 CLA      0.136800
    115 HHB        79.1544   60.9780   39.3911 da         1 CLA      0.138300
    116 HBD        74.5651   57.1300   34.9024 dc         1 CLA      0.107700
    117 HAB        78.3495   63.1129   44.2983 da         1 CLA      0.155200
    118 H93        87.0283   54.3567   38.7770 dc         1 CLA      0.069500
    119 H92        87.0353   54.8354   37.0359 dc         1 CLA      0.069500
    120 H91        87.5666   56.0269   38.2170 dc         1 CLA      0.069500
    121 H8         85.4782   56.5194   37.5178 dc         1 CLA      0.029300
    122 H72        83.3816   55.0886   38.2127 dc         1 CLA      0.044400
    123 H71        84.5460   53.8276   38.3237 dc         1 CLA      0.044400
    124 H62        85.0418   54.4343   35.9001 dc         1 CLA      0.015600
    125 H61        83.8783   55.6967   35.8550 dc         1 CLA      0.015600
    126 H52        83.5163   52.5648   35.5126 dc         1 CLA      0.033200
    127 H51        83.0155   53.9014   34.6500 dc         1 CLA      0.033200
    128 H43        81.4572   52.1077   37.9745 dc         1 CLA      0.037000
    129 H42        80.1060   52.2325   37.0027 dc         1 CLA      0.037000
    130 H41        81.4660   51.1984   36.5172 dc         1 CLA      0.037000
    131 H3A        78.4071   60.3295   36.8645 dc         1 CLA      0.041100
    132 H2A        77.8790   57.3261   36.7482 dc         1 CLA      0.083100
    133 H2         81.0404   55.2106   37.1127 da         1 CLA      0.180900
    134 H18        81.8315   60.7655   46.3855 dc         1 CLA     -0.003900
    135 H13        85.2615   57.0494   42.5590 dc         1 CLA      0.019700
    136 H12        79.3390   53.9994   34.8992 dc         1 CLA      0.120400
    137 H11        80.7383   54.7235   34.2125 dc         1 CLA      0.120400
    138 C1         67.5309   61.5271   50.5790 Z1         2 LUT      0.509236
    139 C2         66.3301   61.2061   51.4198 Z2         2 LUT     -0.434695
    140 C3         65.4652   62.4629   51.7718 Z3         2 LUT      0.437453
    141 O3         65.7581   62.8233   53.1498 S1         2 LUT     -0.547129
    142 C4         65.6305   63.6145   50.8476 Z4         2 LUT     -0.468603
    143 C5         66.2346   63.3858   49.5320 Z5         2 LUT      0.279246
    144 C6         67.1196   62.3747   49.4100 Z6         2 LUT     -0.305473
    145 C7         67.4964   61.8709   48.0223 Z7         2 LUT      0.069402
    146 C8         68.2849   62.4985   47.1339 Z8         2 LUT     -0.191631
    147 C9         68.8174   62.0550   45.8270 Z9         2 LUT      0.196698
    148 C10        69.8215   62.8313   45.2835 Y1         2 LUT     -0.208611
    149 C11        70.5111   62.6873   44.0471 Y2         2 LUT      0.030784
    150 C12        71.5801   63.5051   43.6199 Y3         2 LUT     -0.220316
    151 C13        72.3992   63.4552   42.4023 Y4         2 LUT      0.215937
    152 C14        73.5630   64.1394   42.3188 Y5         2 LUT     -0.185793
    153 C15        74.5335   64.2155   41.2524 Y6         2 LUT     -0.057835
    154 C16        68.3134   60.2217   50.1849 Y7         2 LUT     -0.405615
    155 C17        68.5606   62.2964   51.4200 Y7         2 LUT     -0.405615
    156 C18        65.7831   64.3557   48.4951 Y9         2 LUT     -0.369639
    157 C19        68.3603   60.8175   45.0991 W1         2 LUT     -0.333362
    158 C20        71.6948   62.9358   41.2133 W2         2 LUT     -0.323439
    159 C21        85.8377   65.1439   34.7956 Z1         2 LUT      0.406104
    160 C22        86.4972   64.5761   33.5728 Z2         2 LUT     -0.404965
    161 C23        86.4268   65.4217   32.3254 Z3         2 LUT      0.391255
    162 O23        86.7132   64.4209   31.2980 S1         2 LUT     -0.528210
    163 C24        85.1176   66.1327   32.2471 W6         2 LUT     -0.258361
    164 C25        84.1835   66.2571   33.2101 Z5         2 LUT      0.133546
    165 C26        84.3450   65.5554   34.5930 W8         2 LUT     -0.147008
    166 C27        83.7559   66.4013   35.7680 Z7         2 LUT      0.023843
    167 C28        82.6359   65.9612   36.4258 Z8         2 LUT     -0.216987
    168 C29        82.1129   66.3926   37.7193 Z9         2 LUT      0.206524
    169 C30        80.8873   65.9003   38.1444 Y1         2 LUT     -0.215556
    170 C31        80.0917   66.1498   39.2887 Y2         2 LUT      0.025142
    171 C32        78.9541   65.4741   39.5540 Y3         2 LUT     -0.212209
    172 C33        77.9096   65.6470   40.6035 Y4         2 LUT      0.240937
    173 C34        76.8032   64.8809   40.4807 Y5         2 LUT     -0.218862
    174 C35        75.6628   64.8951   41.3889 Y6         2 LUT     -0.023547
    175 C36        86.7467   66.2840   35.2711 Y7         2 LUT     -0.393485
    176 C37        85.8579   64.1144   35.8701 Y7         2 LUT     -0.393485
    177 C38        82.9673   67.0068   33.0247 Y9         2 LUT     -0.387526
    178 C39        83.0214   67.1577   38.6327 W1         2 LUT     -0.322618
    179 C40        78.1622   66.7685   41.5786 W2         2 LUT     -0.358472
    180 H403       77.6711   66.5293   42.5083 R7         2 LUT      0.097720
    181 H402       79.2526   66.8134   41.8984 R7         2 LUT      0.097720
    182 H401       77.8734   67.7928   41.3544 R7         2 LUT      0.097720
    183 H393       83.1619   66.5706   39.6254 R4         2 LUT      0.082505
    184 H392       83.9686   67.4183   38.1840 R4         2 LUT      0.082505
    185 H391       82.5807   68.0963   38.9351 R4         2 LUT      0.082505
    186 H383       82.7034   66.9938   32.0045 R1         2 LUT      0.104030
    187 H382       82.1969   66.4913   33.5849 R1         2 LUT      0.104030
    188 H381       82.9993   68.0478   33.4679 R1         2 LUT      0.104030
    189 H373       85.5842   64.3933   36.8707 T4         2 LUT      0.089537
    190 H372       85.3327   63.2812   35.6182 T4         2 LUT      0.089537
    191 H371       86.9153   63.7158   36.0262 T4         2 LUT      0.089537
    192 H363       87.7919   66.0455   35.3359 T4         2 LUT      0.089537
    193 H362       86.7070   67.2470   34.7553 T4         2 LUT      0.089537
    194 H361       86.3844   66.5684   36.2646 T4         2 LUT      0.089537
    195 H222       87.5242   64.2326   33.8736 U2         2 LUT      0.127376
    196 H221       86.0663   63.6497   33.2741 U2         2 LUT      0.127376
    197 H203       72.0793   61.9687   41.0049 R7         2 LUT      0.087068
    198 H202       70.6177   63.0420   41.3909 R7         2 LUT      0.087068
    199 H201       71.8496   63.5583   40.3466 R7         2 LUT      0.087068
    200 H193       68.0513   59.9618   45.7726 R4         2 LUT      0.089716
    201 H192       67.4047   61.1610   44.5586 R4         2 LUT      0.089716
    202 H191       68.9227   60.4220   44.2712 R4         2 LUT      0.089716
    203 H183       64.6507   64.2908   48.3318 R1         2 LUT      0.094572
    204 H182       66.0231   65.3676   48.8041 R1         2 LUT      0.094572
    205 H181       66.2116   64.1460   47.5455 R1         2 LUT      0.094572
    206 H173       69.3950   62.7630   50.7998 T4         2 LUT      0.093752
    207 H172       68.1850   63.1401   52.0290 T4         2 LUT      0.093752
    208 H171       69.0765   61.7246   52.1947 T4         2 LUT      0.093752
    209 H163       68.5789   59.6904   51.0439 T4         2 LUT      0.093752
    210 H162       67.7711   59.4222   49.6267 T4         2 LUT      0.093752
    211 H161       69.2214   60.4101   49.5911 T4         2 LUT      0.093752
    212 HO3        65.2606   62.2855   53.7784 Q1         2 LUT      0.300121
    213 H8         68.8704   63.1968   47.6647 U7         2 LUT      0.080784
    214 H7         67.2672   60.8393   47.6240 U6         2 LUT      0.042190
    215 H42        64.5931   63.8299   50.5487 U5         2 LUT      0.145166
    216 H41        66.1126   64.3476   51.4565 U5         2 LUT      0.145166
    217 H35        75.7281   65.5518   42.2067 T3         2 LUT      0.077919
    218 H34        76.7338   64.1991   39.6859 T2         2 LUT      0.073626
    219 H32        78.7187   64.6698   38.8674 T1         2 LUT      0.092510
    220 H31        80.3042   66.9251   40.0368 U9         2 LUT      0.070048
    221 H30        80.4203   65.1933   37.4793 U8         2 LUT      0.085442
    222 H3         64.4250   62.1629   51.7687 U3         2 LUT     -0.031596
    223 H28        82.1786   65.1198   35.9426 U7         2 LUT      0.084728
    224 H27        84.2890   67.2467   36.1334 U6         2 LUT      0.087291
    225 H26        83.7316   64.6682   34.5237 Q6         2 LUT      0.075325
    226 H24        84.9534   66.7600   31.3668 Q5         2 LUT      0.094482
    227 H23        87.1763   66.1521   32.4278 U3         2 LUT     -0.024869
    228 H22        65.6917   60.5180   50.8720 U2         2 LUT      0.127376
    229 H21        66.5706   60.7227   52.3140 U2         2 LUT      0.127376
    230 H15        74.1798   63.4708   40.5009 T3         2 LUT      0.093200
    231 H14        73.7329   64.7460   43.2239 T2         2 LUT      0.068865
    232 H12        71.9198   64.2850   44.3577 T1         2 LUT      0.095507
    233 H11        70.4430   61.8414   43.3150 U9         2 LUT      0.068930
    234 H10        70.0322   63.7085   45.8723 U8         2 LUT      0.083911
    235 H1         86.4811   64.7229   30.4173 Q1         2 LUT      0.297311
@<TRIPOS>BOND
    1     6     1 1
    2     7     2 1
    3     8     3 1
    4     9     4 1
    5    11     4 1
    6    12     6 1
    7    13     9 1
    8    16     9 1
    9    25     5 1
   10    25    16 1
   11    26    10 1
   12    26    17 1
   13    27    18 1
   14    28    14 1
   15    28    19 1
   16    29    12 1
   17    30    13 1
   18    31    24 1
   19    32     1 1
   20    32    25 1
   21    33    21 1
   22    33    26 1
   23    34    22 1
   24    34    27 1
   25    35    23 1
   26    35    28 1
   27    36    12 1
   28    36    24 1
   29    37    13 1
   30    37    15 1
   31    38    31 1
   32    39    20 1
   33    39    32 1
   34    40     2 1
   35    40    33 1
   36    41     3 1
   37    41    34 1
   38    42     4 1
   39    42    35 1
   40    43    38 1
   41    44     5 1
   42    44    17 1
   43    44    39 1
   44    45    10 1
   45    45    18 1
   46    45    40 1
   47    46    19 1
   48    46    41 1
   49    47    14 1
   50    47    16 1
   51    47    42 1
   52    48    38 1
   53    49    48 1
   54    50    49 1
   55    51    50 1
   56    52    51 1
   57    53    51 1
   58    54    53 1
   59    55    54 1
   60    56    55 1
   61    57    56 1
   62    58    56 1
   63    59    58 1
   64    60    59 1
   65    61    60 1
   66    62    61 1
   67    63    61 1
   68    64    27 1
   69    64    46 1
   70    65     5 1
   71    65    10 1
   72    65    64 1
   73    65    14 1
   74    66    23 1
   75    67    23 1
   76    68    23 1
   77    69    22 1
   78    70    22 1
   79    71    22 1
   80    72    21 1
   81    73    21 1
   82    74    21 1
   83    75    20 1
   84    76    20 1
   85    77    20 1
   86    78    15 1
   87    79    15 1
   88    80    15 1
   89    81     8 1
   90    82     8 1
   91    83     8 1
   92    84     7 1
   93    85     7 1
   94    86     6 1
   95    87     6 1
   96    88     3 1
   97    89     3 1
   98    90     1 1
   99    91     1 1
  100    92    63 1
  101    93    63 1
  102    94    63 1
  103    95    62 1
  104    96    62 1
  105    97    62 1
  106    98    60 1
  107    99    60 1
  108   100    59 1
  109   101    59 1
  110   102    58 1
  111   103    58 1
  112   104    57 1
  113   105    57 1
  114   106    57 1
  115   107    55 1
  116   108    55 1
  117   109    54 1
  118   110    54 1
  119   111    53 1
  120   112    53 1
  121   113    19 1
  122   114    18 1
  123   115    17 1
  124   116     9 1
  125   117     2 1
  126   118    52 1
  127   119    52 1
  128   120    52 1
  129   121    51 1
  130   122    50 1
  131   123    50 1
  132   124    49 1
  133   125    49 1
  134   126    48 1
  135   127    48 1
  136   128    43 1
  137   129    43 1
  138   130    43 1
  139   131    39 1
  140   132    32 1
  141   133    31 1
  142   134    61 1
  143   135    56 1
  144   136    24 1
  145   137    24 1
  146   139   138 1
  147   140   139 1
  148   141   140 1
  149   142   140 1
  150   143   142 1
  151   144   138 1
  152   144   143 1
  153   145   144 1
  154   146   145 1
  155   147   146 1
  156   148   147 1
  157   149   148 1
  158   150   149 1
  159   151   150 1
  160   152   151 1
  161   153   152 1
  162   154   138 1
  163   155   138 1
  164   156   143 1
  165   157   147 1
  166   158   151 1
  167   160   159 1
  168   161   160 1
  169   162   161 1
  170   163   161 1
  171   164   163 1
  172   165   159 1
  173   165   164 1
  174   166   165 1
  175   167   166 1
  176   168   167 1
  177   169   168 1
  178   170   169 1
  179   171   170 1
  180   172   171 1
  181   173   172 1
  182   174   153 1
  183   174   173 1
  184   175   159 1
  185   176   159 1
  186   177   164 1
  187   178   168 1
  188   179   172 1
  189   180   179 1
  190   181   179 1
  191   182   179 1
  192   183   178 1
  193   184   178 1
  194   185   178 1
  195   186   177 1
  196   187   177 1
  197   188   177 1
  198   189   176 1
  199   190   176 1
  200   191   176 1
  201   192   175 1
  202   193   175 1
  203   194   175 1
  204   195   160 1
  205   196   160 1
  206   197   158 1
  207   198   158 1
  208   199   158 1
  209   200   157 1
  210   201   157 1
  211   202   157 1
  212   203   156 1
  213   204   156 1
  214   205   156 1
  215   206   155 1
  216   207   155 1
  217   208   155 1
  218   209   154 1
  219   210   154 1
  220   211   154 1
  221   212   141 1
  222   213   146 1
  223   214   145 1
  224   215   142 1
  225   216   142 1
  226   217   174 1
  227   218   173 1
  228   219   171 1
  229   220   170 1
  230   221   169 1
  231   222   140 1
  232   223   167 1
  233   224   166 1
  234   225   165 1
  235   226   163 1
  236   227   161 1
  237   228   139 1
  238   229   139 1
  239   230   153 1
  240   231   152 1
  241   232   150 1
  242   233   149 1
  243   234   148 1
  244   235   162 1
  245   65    153 1
  246   65    174 1
@<TRIPOS>SUBSTRUCTURE
      1 CLA               1 ****               0 ****  **** 
      2 LUT             138 ****               0 ****  **** 
