@<TRIPOS>MOLECULE
Cpptraj generated mol2 file.
  235   246     2     0     0
SMALL
USER_CHARGES


@<TRIPOS>ATOM
      1 CAA        80.1387   57.2803   35.4707 a2         1 CLA     -0.055900
      2 CAB        79.5242   61.5524   44.2266 c8         1 CLA     -0.148500
      3 CAC        72.7202   57.2260   43.5063 a2         1 CLA     -0.012600
      4 CAD        75.7735   54.7803   36.4017 ck         1 CLA      0.398800
      5 NA         78.7784   57.8863   38.6000 ns         1 CLA     -0.225500
      6 CBA        81.3704   57.0581   34.6187 a2         1 CLA     -0.135000
      7 CBB        80.6087   61.5708   45.0358 c0         1 CLA     -0.395200
      8 CBC        72.8408   55.7765   43.8652 a3         1 CLA     -0.037700
      9 CBD        77.2937   55.2521   36.2048 a1         1 CLA     -0.053900
     10 NB         78.5098   59.6755   41.1241 nm         1 CLA     -0.295700
     11 OBD        75.2486   53.9368   35.7032 o2         1 CLA     -0.494600
     12 CGA        81.5934   55.5394   34.3102 c4         1 CLA      0.827000
     13 CGD        78.2511   54.1091   36.1178 c4         1 CLA      0.655300
     14 ND         76.0035   56.9878   39.1463 nm         1 CLA     -0.291600
     15 CED        78.6897   51.9074   37.0887 a3         1 CLA      0.005400
     16 CHA        77.5731   56.2204   37.3332 cs         1 CLA     -0.123800
     17 CHB        80.5455   59.2674   39.7473 aa         1 CLA     -0.291900
     18 CHC        77.1193   59.8458   43.1990 aa         1 CLA     -0.090400
     19 CHD        74.0806   57.0581   40.6467 aa         1 CLA     -0.052000
     20 CMA        82.0962   56.8189   38.5968 a3         1 CLA     -0.230700
     21 CMB        81.7929   61.3798   41.7990 a3         1 CLA     -0.180800
     22 CMC        74.8644   59.1557   45.1863 a3         1 CLA     -0.134000
     23 CMD        72.9531   54.9588   38.5654 a3         1 CLA     -0.141100
     24 C1         82.4487   53.5224   35.2020 a2         1 CLA      0.023000
     25 C1A        78.7135   57.0121   37.5846 ac         1 CLA     -0.015100
     26 C1B        79.8665   59.8791   40.8543 cr         1 CLA      0.054700
     27 C1C        76.0103   59.0173   42.9127 cn         1 CLA     -0.005600
     28 C1D        74.7197   56.5664   39.4763 ap         1 CLA     -0.047300
     29 O1A        80.9995   54.9166   33.4552 o2         1 CLA     -0.610800
     30 O1D        79.1484   53.8892   35.3020 o2         1 CLA     -0.558200
     31 C2         83.2194   53.0700   36.4641 c8         1 CLA     -0.325100
     32 C2A        80.0810   56.8502   36.9263 a1         1 CLA      0.098600
     33 C2B        80.3913   60.8421   41.8458 cb         1 CLA      0.088500
     34 C2C        74.9349   58.6308   43.7895 cb         1 CLA      0.053700
     35 C2D        74.2255   55.6793   38.4994 cb         1 CLA      0.058900
     36 O2A        82.4725   54.9980   35.1352 o1         1 CLA     -0.437200
     37 O2D        77.9243   53.2081   37.0674 o1         1 CLA     -0.357600
     38 C3         84.4548   52.5157   36.5697 c5         1 CLA      0.031200
     39 C3A        81.0795   57.6592   37.8346 a1         1 CLA      0.166800
     40 C3B        79.4580   60.9839   42.8458 cb         1 CLA      0.035000
     41 C3C        74.0251   57.8304   43.0528 cb         1 CLA     -0.089900
     42 C3D        75.3116   55.4824   37.6028 cb         1 CLA     -0.035900
     43 C4         84.6975   51.0580   36.2552 a3         1 CLA     -0.053300
     44 C4A        80.0751   58.4081   38.7280 ac         1 CLA      0.001800
     45 C4B        78.3005   60.1176   42.4416 cn         1 CLA     -0.020900
     46 C4C        74.6753   57.7553   41.7071 cr         1 CLA     -0.044400
     47 C4D        76.3306   56.3745   38.0186 c6         1 CLA     -0.046000
     48 C5         85.6206   53.4465   36.8653 a2         1 CLA     -0.070400
     49 C6         85.5369   54.2327   38.2494 a2         1 CLA      0.043900
     50 C7         86.8492   54.9234   38.5799 a2         1 CLA     -0.150000
     51 C8         87.0721   55.5127   39.9999 a1         1 CLA      0.064200
     52 C9         85.9636   56.5905   40.3335 a3         1 CLA     -0.259300
     53 C10        88.5497   56.0884   40.1147 a2         1 CLA     -0.071900
     54 C11        88.9453   56.8750   41.3648 a2         1 CLA      0.014500
     55 C12        88.7172   56.1140   42.6853 a2         1 CLA     -0.112100
     56 C13        88.6295   56.9320   44.0131 a1         1 CLA      0.089200
     57 C14        89.1161   56.1260   45.2205 a3         1 CLA     -0.239100
     58 C15        87.1989   57.5192   44.1849 a2         1 CLA     -0.102200
     59 C16        86.9815   58.4588   45.4013 a2         1 CLA      0.023900
     60 C17        85.6401   59.0724   45.4937 a2         1 CLA     -0.105700
     61 C18        84.5201   58.2019   46.0782 a1         1 CLA      0.206800
     62 C19        84.5971   58.0536   47.6175 a3         1 CLA     -0.280100
     63 C20        82.9959   58.6479   45.8377 a3         1 CLA     -0.280100
     64 NC         75.9101   58.3275   41.7117 nx         1 CLA     -0.309200
     65 MG         77.3223   58.2749   40.1818 mg         1 CLA      0.895000
     66 HMD3       72.8755   54.3825   39.4776 dc         1 CLA      0.064300
     67 HMD2       71.9847   55.5443   38.4922 dc         1 CLA      0.064300
     68 HMD1       73.0015   54.2798   37.6792 dc         1 CLA      0.064300
     69 HMC3       74.8306   60.2625   45.0720 dc         1 CLA      0.052100
     70 HMC2       74.0095   58.7649   45.7518 dc         1 CLA      0.052100
     71 HMC1       75.7622   58.7355   45.7472 dc         1 CLA      0.052100
     72 HMB3       81.7949   62.1352   42.5649 dc         1 CLA      0.063600
     73 HMB2       82.4212   60.5439   42.0495 dc         1 CLA      0.063600
     74 HMB1       81.9420   61.7144   40.7572 dc         1 CLA      0.063600
     75 HMA3       82.6941   57.4413   39.2312 dc         1 CLA      0.058300
     76 HMA2       81.5779   56.1109   39.2070 dc         1 CLA      0.058300
     77 HMA1       82.6900   56.3111   37.9065 dc         1 CLA      0.058300
     78 HED3       78.3661   51.1625   37.8222 dc         1 CLA      0.079300
     79 HED2       78.6361   51.4739   36.0842 dc         1 CLA      0.079300
     80 HED1       79.8128   52.0773   37.2787 dc         1 CLA      0.079300
     81 HBC3       73.0318   55.1949   42.9339 dc         1 CLA      0.016300
     82 HBC2       73.5472   55.6044   44.7082 dc         1 CLA      0.016300
     83 HBC1       71.8711   55.3699   44.2352 dc         1 CLA      0.016300
     84 HBB2       80.4974   61.8490   46.1073 da         1 CLA      0.183000
     85 HBB1       81.6162   61.2319   44.8158 da         1 CLA      0.183000
     86 HBA2       81.2113   57.7117   33.7210 dc         1 CLA      0.029400
     87 HBA1       82.2150   57.4535   35.1326 dc         1 CLA      0.029400
     88 HAC2       72.4199   57.7517   44.4156 dc         1 CLA      0.029300
     89 HAC1       71.8752   57.3292   42.8455 dc         1 CLA      0.029300
     90 HAA2       79.3257   56.7826   35.0011 dc         1 CLA      0.028700
     91 HAA1       80.0101   58.3653   35.5767 dc         1 CLA      0.028700
     92 H203       82.7337   59.6067   46.2730 dc         1 CLA      0.065600
     93 H202       82.8268   58.7092   44.7634 dc         1 CLA      0.065600
     94 H201       82.2672   57.9339   46.2008 dc         1 CLA      0.065600
     95 H193       85.3753   57.3675   47.7974 dc         1 CLA      0.065600
     96 H192       84.8415   59.0449   48.0559 dc         1 CLA      0.065600
     97 H191       83.7407   57.5668   48.0470 dc         1 CLA      0.065600
     98 H172       85.7383   59.9257   46.2045 dc         1 CLA      0.027600
     99 H171       85.2506   59.3462   44.5007 dc         1 CLA      0.027600
    100 H162       87.2393   57.8819   46.3762 dc         1 CLA      0.002900
    101 H161       87.7764   59.2437   45.3744 dc         1 CLA      0.002900
    102 H152       86.9275   58.0524   43.2604 dc         1 CLA      0.029100
    103 H151       86.6265   56.6373   44.3597 dc         1 CLA      0.029100
    104 H143       89.2910   56.7999   46.0589 dc         1 CLA      0.063600
    105 H142       88.3255   55.3885   45.4313 dc         1 CLA      0.063600
    106 H141       89.9990   55.4927   45.0125 dc         1 CLA      0.063600
    107 H122       87.8193   55.4328   42.6513 dc         1 CLA      0.032500
    108 H121       89.6141   55.4437   42.6342 dc         1 CLA      0.032500
    109 H112       90.0081   57.1232   41.3168 dc         1 CLA      0.006600
    110 H111       88.3782   57.7432   41.3231 dc         1 CLA      0.006600
    111 H102       89.2720   55.3536   39.9772 dc         1 CLA      0.024100
    112 H101       88.7215   56.8164   39.3374 dc         1 CLA      0.024100
    113 HHD        72.9953   56.9465   40.8677 da         1 CLA      0.174300
    114 HHC        77.0307   60.1994   44.2218 da         1 CLA      0.136800
    115 HHB        81.6229   59.3696   39.7663 da         1 CLA      0.138300
    116 HBD        77.3512   55.7552   35.2624 dc         1 CLA      0.107700
    117 HAB        78.5010   61.7699   44.6484 da         1 CLA      0.155200
    118 H93        86.0836   57.1028   41.3009 dc         1 CLA      0.069500
    119 H92        86.2078   57.3389   39.5958 dc         1 CLA      0.069500
    120 H91        84.8937   56.3469   40.1940 dc         1 CLA      0.069500
    121 H8         86.8353   54.7548   40.7807 dc         1 CLA      0.029300
    122 H72        87.6674   54.1687   38.3960 dc         1 CLA      0.044400
    123 H71        87.0906   55.7060   37.8543 dc         1 CLA      0.044400
    124 H62        84.7933   54.9644   38.1137 dc         1 CLA      0.015600
    125 H61        85.2932   53.5111   39.0575 dc         1 CLA      0.015600
    126 H52        86.5339   52.8139   36.9490 dc         1 CLA      0.033200
    127 H51        85.6778   54.2147   36.1110 dc         1 CLA      0.033200
    128 H43        85.3375   50.6011   37.0022 dc         1 CLA      0.037000
    129 H42        83.8350   50.4151   36.1690 dc         1 CLA      0.037000
    130 H41        85.1343   50.9699   35.2441 dc         1 CLA      0.037000
    131 H3A        81.5974   58.4697   37.3162 dc         1 CLA      0.041100
    132 H2A        80.3064   55.7598   37.0145 dc         1 CLA      0.083100
    133 H2         82.6347   53.0990   37.3791 da         1 CLA      0.180900
    134 H18        84.6453   57.1714   45.7652 dc         1 CLA     -0.003900
    135 H13        89.3837   57.6884   43.8306 dc         1 CLA      0.019700
    136 H12        81.4231   53.2038   35.1823 dc         1 CLA      0.120400
    137 H11        82.9705   53.1819   34.2876 dc         1 CLA      0.120400
    138 C1         69.4777   61.1326   50.0033 Z1         2 LUT      0.509236
    139 C2         68.1423   60.8759   50.7615 Z2         2 LUT     -0.434695
    140 C3         67.3127   61.9468   51.2935 Z3         2 LUT      0.437453
    141 O3         67.8083   62.5147   52.5318 S1         2 LUT     -0.547129
    142 C4         67.3653   63.1089   50.3057 Z4         2 LUT     -0.468603
    143 C5         68.1479   62.9500   48.9766 Z5         2 LUT      0.279246
    144 C6         69.1066   62.0581   48.8116 Z6         2 LUT     -0.305473
    145 C7         69.6422   61.6466   47.4683 Z7         2 LUT      0.069402
    146 C8         70.7681   62.1426   46.8944 Z8         2 LUT     -0.191631
    147 C9         71.4968   61.6889   45.7301 Z9         2 LUT      0.196698
    148 C10        72.5214   62.4123   45.3482 Y1         2 LUT     -0.208611
    149 C11        73.4246   62.3398   44.2517 Y2         2 LUT      0.030784
    150 C12        74.5136   63.0100   43.9838 Y3         2 LUT     -0.220316
    151 C13        75.4539   62.9650   42.9341 Y4         2 LUT      0.215937
    152 C14        76.6163   63.6735   43.0902 Y5         2 LUT     -0.185793
    153 C15        77.8461   63.6614   42.3089 Y6         2 LUT     -0.057835
    154 C16        70.1591   59.7423   49.6162 Y7         2 LUT     -0.405615
    155 C17        70.3752   61.9246   50.8837 Y7         2 LUT     -0.405615
    156 C18        67.5617   63.9054   47.9473 Y9         2 LUT     -0.369639
    157 C19        71.1421   60.3622   45.0725 W1         2 LUT     -0.333362
    158 C20        75.2488   62.2654   41.5568 W2         2 LUT     -0.323439
    159 C21        89.4240   64.3965   36.2324 Z1         2 LUT      0.406104
    160 C22        90.1353   63.6523   35.1120 Z2         2 LUT     -0.404965
    161 C23        90.2769   64.3140   33.7538 Z3         2 LUT      0.391255
    162 O23        90.6495   63.2921   32.8370 S1         2 LUT     -0.528210
    163 C24        88.9652   64.9464   33.3931 W6         2 LUT     -0.258361
    164 C25        87.8918   65.0251   34.2238 Z5         2 LUT      0.133546
    165 C26        87.8988   64.5966   35.6852 W8         2 LUT     -0.147008
    166 C27        87.0140   65.3937   36.6005 Z7         2 LUT      0.023843
    167 C28        85.8625   64.9764   37.2253 Z8         2 LUT     -0.216987
    168 C29        85.1225   65.7310   38.1778 Z9         2 LUT      0.206524
    169 C30        84.0509   65.0971   38.7056 Y1         2 LUT     -0.215556
    170 C31        83.1274   65.4970   39.8209 Y2         2 LUT      0.025142
    171 C32        82.0569   64.6982   40.2812 Y3         2 LUT     -0.212209
    172 C33        81.1786   65.0419   41.3962 Y4         2 LUT      0.240937
    173 C34        79.9978   64.3019   41.5157 Y5         2 LUT     -0.218862
    174 C35        78.9831   64.4552   42.4747 Y6         2 LUT     -0.023547
    175 C36        90.1704   65.7266   36.5801 Y7         2 LUT     -0.393485
    176 C37        89.5566   63.4936   37.5053 Y7         2 LUT     -0.393485
    177 C38        86.6105   65.7940   33.7260 Y9         2 LUT     -0.387526
    178 C39        85.5519   67.1042   38.6489 W1         2 LUT     -0.322618
    179 C40        81.5761   66.2206   42.1888 W2         2 LUT     -0.358472
    180 H403       82.5597   66.0659   42.6020 R7         2 LUT      0.097720
    181 H402       81.4478   67.1590   41.6832 R7         2 LUT      0.097720
    182 H401       80.9930   66.3339   43.0705 R7         2 LUT      0.097720
    183 H393       85.7055   67.0087   39.7385 R4         2 LUT      0.082505
    184 H392       86.4627   67.5620   38.3081 R4         2 LUT      0.082505
    185 H391       84.7394   67.8355   38.4894 R4         2 LUT      0.082505
    186 H383       86.5670   66.7289   34.2797 R1         2 LUT      0.104030
    187 H382       86.7413   65.9870   32.6738 R1         2 LUT      0.104030
    188 H381       85.6466   65.2790   34.0300 R1         2 LUT      0.104030
    189 H373       90.5367   63.6305   38.0190 T4         2 LUT      0.089537
    190 H372       88.8334   63.8542   38.1556 T4         2 LUT      0.089537
    191 H371       89.4787   62.4379   37.4076 T4         2 LUT      0.089537
    192 H363       89.9630   66.4169   35.7985 T4         2 LUT      0.089537
    193 H362       89.8478   66.2832   37.4879 T4         2 LUT      0.089537
    194 H361       91.2570   65.6016   36.6422 T4         2 LUT      0.089537
    195 H222       91.2241   63.5241   35.3729 U2         2 LUT      0.127376
    196 H221       89.7344   62.6153   34.9118 U2         2 LUT      0.127376
    197 H203       75.1493   63.1001   40.8795 R7         2 LUT      0.087068
    198 H202       76.0639   61.6252   41.2674 R7         2 LUT      0.087068
    199 H201       74.3633   61.7237   41.4941 R7         2 LUT      0.087068
    200 H193       70.2684   60.3156   44.4204 R4         2 LUT      0.089716
    201 H192       71.9394   59.9535   44.5025 R4         2 LUT      0.089716
    202 H191       70.9822   59.6717   45.8537 R4         2 LUT      0.089716
    203 H183       66.5989   64.3363   48.1974 R1         2 LUT      0.094572
    204 H182       68.1953   64.7870   47.8489 R1         2 LUT      0.094572
    205 H181       67.4822   63.4359   46.9041 R1         2 LUT      0.094572
    206 H173       69.9240   62.9578   51.0736 T4         2 LUT      0.093752
    207 H172       70.4413   61.5271   51.8716 T4         2 LUT      0.093752
    208 H171       71.3968   62.0876   50.4913 T4         2 LUT      0.093752
    209 H163       71.0827   59.8998   49.0745 T4         2 LUT      0.093752
    210 H162       70.3807   59.1690   50.5689 T4         2 LUT      0.093752
    211 H161       69.5036   59.2123   49.0076 T4         2 LUT      0.093752
    212 HO3        67.5837   62.0407   53.3123 Q1         2 LUT      0.300121
    213 H8         71.2724   62.9628   47.3852 U7         2 LUT      0.080784
    214 H7         69.1865   60.7484   47.0169 U6         2 LUT      0.042190
    215 H42        66.3007   63.3425   49.9704 U5         2 LUT      0.145166
    216 H41        67.6754   64.0234   50.8123 U5         2 LUT      0.145166
    217 H35        79.0939   65.1137   43.2788 T3         2 LUT      0.077919
    218 H34        79.8240   63.5135   40.8205 T2         2 LUT      0.073626
    219 H32        81.7753   63.7474   39.7717 T1         2 LUT      0.092510
    220 H31        83.5670   66.3919   40.3170 U9         2 LUT      0.070048
    221 H30        83.7660   64.0928   38.3268 U8         2 LUT      0.085442
    222 H3         66.2851   61.5513   51.3036 U3         2 LUT     -0.031596
    223 H28        85.5250   64.0112   36.8865 U7         2 LUT      0.084728
    224 H27        87.4230   66.3763   36.7257 U6         2 LUT      0.087291
    225 H26        87.5216   63.5091   35.6836 Q6         2 LUT      0.075325
    226 H24        88.9283   65.4039   32.3752 Q5         2 LUT      0.094482
    227 H23        90.9894   65.1441   33.7881 U3         2 LUT     -0.024869
    228 H22        67.4123   60.4152   50.0699 U2         2 LUT      0.127376
    229 H21        68.2823   60.1043   51.5307 U2         2 LUT      0.127376
    230 H15        77.8840   63.0436   41.4222 T3         2 LUT      0.093200
    231 H14        76.6357   64.2415   43.9584 T2         2 LUT      0.068865
    232 H12        74.6759   63.7795   44.7286 T1         2 LUT      0.095507
    233 H11        73.1464   61.5891   43.5286 U9         2 LUT      0.068930
    234 H10        72.7871   63.3309   45.9592 U8         2 LUT      0.083911
    235 H1         91.0875   63.7029   32.0710 Q1         2 LUT      0.297311
@<TRIPOS>BOND
    1     6     1 1
    2     7     2 1
    3     8     3 1
    4     9     4 1
    5    11     4 1
    6    12     6 1
    7    13     9 1
    8    16     9 1
    9    25     5 1
   10    25    16 1
   11    26    10 1
   12    26    17 1
   13    27    18 1
   14    28    14 1
   15    28    19 1
   16    29    12 1
   17    30    13 1
   18    31    24 1
   19    32     1 1
   20    32    25 1
   21    33    21 1
   22    33    26 1
   23    34    22 1
   24    34    27 1
   25    35    23 1
   26    35    28 1
   27    36    12 1
   28    36    24 1
   29    37    13 1
   30    37    15 1
   31    38    31 1
   32    39    20 1
   33    39    32 1
   34    40     2 1
   35    40    33 1
   36    41     3 1
   37    41    34 1
   38    42     4 1
   39    42    35 1
   40    43    38 1
   41    44     5 1
   42    44    17 1
   43    44    39 1
   44    45    10 1
   45    45    18 1
   46    45    40 1
   47    46    19 1
   48    46    41 1
   49    47    14 1
   50    47    16 1
   51    47    42 1
   52    48    38 1
   53    49    48 1
   54    50    49 1
   55    51    50 1
   56    52    51 1
   57    53    51 1
   58    54    53 1
   59    55    54 1
   60    56    55 1
   61    57    56 1
   62    58    56 1
   63    59    58 1
   64    60    59 1
   65    61    60 1
   66    62    61 1
   67    63    61 1
   68    64    27 1
   69    64    46 1
   70    65     5 1
   71    65    10 1
   72    65    64 1
   73    65    14 1
   74    66    23 1
   75    67    23 1
   76    68    23 1
   77    69    22 1
   78    70    22 1
   79    71    22 1
   80    72    21 1
   81    73    21 1
   82    74    21 1
   83    75    20 1
   84    76    20 1
   85    77    20 1
   86    78    15 1
   87    79    15 1
   88    80    15 1
   89    81     8 1
   90    82     8 1
   91    83     8 1
   92    84     7 1
   93    85     7 1
   94    86     6 1
   95    87     6 1
   96    88     3 1
   97    89     3 1
   98    90     1 1
   99    91     1 1
  100    92    63 1
  101    93    63 1
  102    94    63 1
  103    95    62 1
  104    96    62 1
  105    97    62 1
  106    98    60 1
  107    99    60 1
  108   100    59 1
  109   101    59 1
  110   102    58 1
  111   103    58 1
  112   104    57 1
  113   105    57 1
  114   106    57 1
  115   107    55 1
  116   108    55 1
  117   109    54 1
  118   110    54 1
  119   111    53 1
  120   112    53 1
  121   113    19 1
  122   114    18 1
  123   115    17 1
  124   116     9 1
  125   117     2 1
  126   118    52 1
  127   119    52 1
  128   120    52 1
  129   121    51 1
  130   122    50 1
  131   123    50 1
  132   124    49 1
  133   125    49 1
  134   126    48 1
  135   127    48 1
  136   128    43 1
  137   129    43 1
  138   130    43 1
  139   131    39 1
  140   132    32 1
  141   133    31 1
  142   134    61 1
  143   135    56 1
  144   136    24 1
  145   137    24 1
  146   139   138 1
  147   140   139 1
  148   141   140 1
  149   142   140 1
  150   143   142 1
  151   144   138 1
  152   144   143 1
  153   145   144 1
  154   146   145 1
  155   147   146 1
  156   148   147 1
  157   149   148 1
  158   150   149 1
  159   151   150 1
  160   152   151 1
  161   153   152 1
  162   154   138 1
  163   155   138 1
  164   156   143 1
  165   157   147 1
  166   158   151 1
  167   160   159 1
  168   161   160 1
  169   162   161 1
  170   163   161 1
  171   164   163 1
  172   165   159 1
  173   165   164 1
  174   166   165 1
  175   167   166 1
  176   168   167 1
  177   169   168 1
  178   170   169 1
  179   171   170 1
  180   172   171 1
  181   173   172 1
  182   174   153 1
  183   174   173 1
  184   175   159 1
  185   176   159 1
  186   177   164 1
  187   178   168 1
  188   179   172 1
  189   180   179 1
  190   181   179 1
  191   182   179 1
  192   183   178 1
  193   184   178 1
  194   185   178 1
  195   186   177 1
  196   187   177 1
  197   188   177 1
  198   189   176 1
  199   190   176 1
  200   191   176 1
  201   192   175 1
  202   193   175 1
  203   194   175 1
  204   195   160 1
  205   196   160 1
  206   197   158 1
  207   198   158 1
  208   199   158 1
  209   200   157 1
  210   201   157 1
  211   202   157 1
  212   203   156 1
  213   204   156 1
  214   205   156 1
  215   206   155 1
  216   207   155 1
  217   208   155 1
  218   209   154 1
  219   210   154 1
  220   211   154 1
  221   212   141 1
  222   213   146 1
  223   214   145 1
  224   215   142 1
  225   216   142 1
  226   217   174 1
  227   218   173 1
  228   219   171 1
  229   220   170 1
  230   221   169 1
  231   222   140 1
  232   223   167 1
  233   224   166 1
  234   225   165 1
  235   226   163 1
  236   227   161 1
  237   228   139 1
  238   229   139 1
  239   230   153 1
  240   231   152 1
  241   232   150 1
  242   233   149 1
  243   234   148 1
  244   235   162 1
  245   65    153 1
  246   65    174 1
@<TRIPOS>SUBSTRUCTURE
      1 CLA               1 ****               0 ****  **** 
      2 LUT             138 ****               0 ****  **** 
