@<TRIPOS>MOLECULE
Cpptraj generated mol2 file.
  235   246     2     0     0
SMALL
USER_CHARGES


@<TRIPOS>ATOM
      1 CAA        77.8404   58.1487   34.9292 a2         1 CLA     -0.055900
      2 CAB        77.5331   61.9971   43.6765 c8         1 CLA     -0.148500
      3 CAC        70.6183   58.0557   43.2347 a2         1 CLA     -0.012600
      4 CAD        73.6874   55.4464   35.9381 ck         1 CLA      0.398800
      5 NA         76.7183   58.5633   38.1754 ns         1 CLA     -0.225500
      6 CBA        79.1209   58.1229   34.0555 a2         1 CLA     -0.135000
      7 CBB        78.5896   61.6670   44.4736 c0         1 CLA     -0.395200
      8 CBC        70.4354   56.5279   43.2595 a3         1 CLA     -0.037700
      9 CBD        75.2519   55.8340   35.8184 a1         1 CLA     -0.053900
     10 NB         76.5207   60.1670   40.7034 nm         1 CLA     -0.295700
     11 OBD        73.0573   54.7289   35.1158 o2         1 CLA     -0.494600
     12 CGA        79.7336   56.8120   33.6201 c4         1 CLA      0.827000
     13 CGD        76.1389   54.6352   35.8740 c4         1 CLA      0.655300
     14 ND         73.9887   57.4828   38.7814 nm         1 CLA     -0.291600
     15 CED        76.7068   52.7017   37.2089 a3         1 CLA      0.005400
     16 CHA        75.4941   56.9492   36.8428 cs         1 CLA     -0.123800
     17 CHB        78.4446   59.9504   39.1996 aa         1 CLA     -0.291900
     18 CHC        75.2191   60.2759   42.8232 aa         1 CLA     -0.090400
     19 CHD        72.1090   57.5569   40.2727 aa         1 CLA     -0.052000
     20 CMA        79.8000   57.4620   38.0674 a3         1 CLA     -0.230700
     21 CMB        79.8726   61.8064   41.4306 a3         1 CLA     -0.180800
     22 CMC        72.8382   59.5726   44.8650 a3         1 CLA     -0.134000
     23 CMD        70.8093   55.6278   37.9797 a3         1 CLA     -0.141100
     24 C1         80.7655   54.8075   34.4119 a2         1 CLA      0.023000
     25 C1A        76.6367   57.6405   37.1657 ac         1 CLA     -0.015100
     26 C1B        77.8365   60.4833   40.3657 cr         1 CLA      0.054700
     27 C1C        74.1004   59.5572   42.4850 cn         1 CLA     -0.005600
     28 C1D        72.6665   57.1577   39.0399 ap         1 CLA     -0.047300
     29 O1A        79.6499   56.3102   32.4950 o2         1 CLA     -0.610800
     30 O1D        77.1307   54.4976   35.2608 o2         1 CLA     -0.558200
     31 C2         80.7830   53.9152   35.6135 c8         1 CLA     -0.325100
     32 C2A        77.9604   57.5810   36.3668 a1         1 CLA      0.098600
     33 C2B        78.4295   61.2568   41.4686 cb         1 CLA      0.088500
     34 C2C        72.9162   59.2929   43.3480 cb         1 CLA      0.053700
     35 C2D        72.1560   56.2178   38.0622 cb         1 CLA      0.058900
     36 O2A        80.2738   56.1292   34.6760 o1         1 CLA     -0.437200
     37 O2D        75.6774   53.7612   36.8133 o1         1 CLA     -0.357600
     38 C3         81.9140   53.6106   36.2754 c5         1 CLA      0.031200
     39 C3A        78.8910   58.4136   37.2817 a1         1 CLA      0.166800
     40 C3B        77.4144   61.4014   42.3848 cb         1 CLA      0.035000
     41 C3C        71.9923   58.5651   42.6222 cb         1 CLA     -0.089900
     42 C3D        73.2208   56.0910   37.1858 cb         1 CLA     -0.035900
     43 C4         83.0278   52.7126   35.7223 a3         1 CLA     -0.053300
     44 C4A        77.9793   59.0788   38.2798 ac         1 CLA      0.001800
     45 C4B        76.2869   60.6333   41.9982 cn         1 CLA     -0.020900
     46 C4C        72.6158   58.3463   41.3017 cr         1 CLA     -0.044400
     47 C4D        74.3367   56.8478   37.6628 c6         1 CLA     -0.046000
     48 C5         82.1512   54.1786   37.6805 a2         1 CLA     -0.070400
     49 C6         83.1003   55.4232   37.8445 a2         1 CLA      0.043900
     50 C7         83.3800   55.8186   39.3778 a2         1 CLA     -0.150000
     51 C8         84.2839   57.0171   39.6964 a1         1 CLA      0.064200
     52 C9         85.7122   56.7763   39.2070 a3         1 CLA     -0.259300
     53 C10        84.3630   57.3392   41.1847 a2         1 CLA     -0.071900
     54 C11        83.0879   58.0037   41.7757 a2         1 CLA      0.014500
     55 C12        83.3830   58.9680   42.9255 a2         1 CLA     -0.112100
     56 C13        83.8493   58.3658   44.2665 a1         1 CLA      0.089200
     57 C14        82.7308   57.7383   45.0775 a3         1 CLA     -0.239100
     58 C15        84.4726   59.4777   45.2745 a2         1 CLA     -0.102200
     59 C16        83.4879   60.5791   45.8177 a2         1 CLA      0.023900
     60 C17        84.1340   61.5286   46.8303 a2         1 CLA     -0.105700
     61 C18        83.2670   62.6631   47.4146 a1         1 CLA      0.206800
     62 C19        82.1940   62.1377   48.4060 a3         1 CLA     -0.280100
     63 C20        84.1256   63.8114   47.9475 a3         1 CLA     -0.280100
     64 NC         73.8922   58.9358   41.2921 nx         1 CLA     -0.309200
     65 MG         75.1800   58.8974   39.6553 mg         1 CLA      0.895000
     66 HMD3       70.4997   55.4747   38.9942 dc         1 CLA      0.064300
     67 HMD2       70.1512   56.4333   37.5629 dc         1 CLA      0.064300
     68 HMD1       70.7604   54.6345   37.4478 dc         1 CLA      0.064300
     69 HMC3       72.8201   60.6288   44.8879 dc         1 CLA      0.052100
     70 HMC2       72.0117   59.0728   45.3693 dc         1 CLA      0.052100
     71 HMC1       73.7631   59.2086   45.2654 dc         1 CLA      0.052100
     72 HMB3       80.5252   60.9317   41.4858 dc         1 CLA      0.063600
     73 HMB2       79.9133   62.2894   40.4888 dc         1 CLA      0.063600
     74 HMB1       79.9867   62.5070   42.2695 dc         1 CLA      0.063600
     75 HMA3       80.4900   57.0353   37.3251 dc         1 CLA      0.058300
     76 HMA2       80.3728   57.9810   38.8594 dc         1 CLA      0.058300
     77 HMA1       79.2448   56.6988   38.5363 dc         1 CLA      0.058300
     78 HED3       77.6134   53.2149   37.6498 dc         1 CLA      0.079300
     79 HED2       76.1595   51.9808   37.8752 dc         1 CLA      0.079300
     80 HED1       76.9106   52.1569   36.3320 dc         1 CLA      0.079300
     81 HBC3       70.5262   56.1395   42.2071 dc         1 CLA      0.016300
     82 HBC2       71.2357   56.0915   43.9334 dc         1 CLA      0.016300
     83 HBC1       69.4391   56.1948   43.6265 dc         1 CLA      0.016300
     84 HBB2       78.6919   62.1721   45.4858 da         1 CLA      0.183000
     85 HBB1       79.3559   60.9135   44.2450 da         1 CLA      0.183000
     86 HBA2       78.7858   58.5779   33.0894 dc         1 CLA      0.029400
     87 HBA1       80.0285   58.6598   34.4954 dc         1 CLA      0.029400
     88 HAC2       70.4487   58.4224   44.2275 dc         1 CLA      0.029300
     89 HAC1       69.8345   58.3560   42.5227 dc         1 CLA      0.029300
     90 HAA2       77.0814   57.5470   34.4339 dc         1 CLA      0.028700
     91 HAA1       77.5462   59.2004   34.8900 dc         1 CLA      0.028700
     92 H203       83.5876   64.7274   48.1998 dc         1 CLA      0.065600
     93 H202       84.6829   63.4946   48.7643 dc         1 CLA      0.065600
     94 H201       84.8796   64.2000   47.1964 dc         1 CLA      0.065600
     95 H193       81.7257   62.9750   48.8925 dc         1 CLA      0.065600
     96 H192       81.2894   61.8124   47.8141 dc         1 CLA      0.065600
     97 H191       82.4824   61.3639   49.1302 dc         1 CLA      0.065600
     98 H172       84.5579   60.9695   47.6337 dc         1 CLA      0.027600
     99 H171       84.9624   61.9862   46.3187 dc         1 CLA      0.027600
    100 H162       83.1764   61.1845   45.0368 dc         1 CLA      0.002900
    101 H161       82.6660   60.1404   46.3499 dc         1 CLA      0.002900
    102 H152       84.9193   58.9312   46.1834 dc         1 CLA      0.029100
    103 H151       85.3830   59.8544   44.7741 dc         1 CLA      0.029100
    104 H143       81.9481   58.5024   45.2127 dc         1 CLA      0.063600
    105 H142       82.4225   56.9071   44.5476 dc         1 CLA      0.063600
    106 H141       83.0011   57.5206   46.0909 dc         1 CLA      0.063600
    107 H122       84.1068   59.6477   42.5977 dc         1 CLA      0.032500
    108 H121       82.5105   59.6059   43.1157 dc         1 CLA      0.032500
    109 H112       82.5842   58.6014   41.0518 dc         1 CLA      0.006600
    110 H111       82.4150   57.1699   42.0340 dc         1 CLA      0.006600
    111 H102       84.6310   56.4445   41.8466 dc         1 CLA      0.024100
    112 H101       85.1235   58.1055   41.4082 dc         1 CLA      0.024100
    113 HHD        71.0449   57.1885   40.4345 da         1 CLA      0.174300
    114 HHC        75.1753   60.5107   43.8629 da         1 CLA      0.136800
    115 HHB        79.5069   60.2146   39.0460 da         1 CLA      0.138300
    116 HBD        75.2393   56.2653   34.8261 dc         1 CLA      0.107700
    117 HAB        76.7697   62.7404   43.8889 da         1 CLA      0.155200
    118 H93        85.5793   57.0054   38.1349 dc         1 CLA      0.069500
    119 H92        86.5978   57.4040   39.4607 dc         1 CLA      0.069500
    120 H91        86.0273   55.6950   39.1942 dc         1 CLA      0.069500
    121 H8         83.9482   57.9992   39.2298 dc         1 CLA      0.029300
    122 H72        82.4064   56.2359   39.7326 dc         1 CLA      0.044400
    123 H71        83.6983   55.0146   39.9710 dc         1 CLA      0.044400
    124 H62        84.0210   55.1535   37.3398 dc         1 CLA      0.015600
    125 H61        82.6079   56.1559   37.2556 dc         1 CLA      0.015600
    126 H52        81.1846   54.5304   38.0443 dc         1 CLA      0.033200
    127 H51        82.5459   53.3309   38.3039 dc         1 CLA      0.033200
    128 H43        82.6681   52.2764   34.8254 dc         1 CLA      0.037000
    129 H42        83.7248   53.4800   35.4596 dc         1 CLA      0.037000
    130 H41        83.3836   51.9368   36.3770 dc         1 CLA      0.037000
    131 H3A        79.3618   59.2377   36.6902 dc         1 CLA      0.041100
    132 H2A        78.3304   56.5867   36.4578 dc         1 CLA      0.083100
    133 H2         79.9244   53.2672   35.5985 da         1 CLA      0.180900
    134 H18        82.8244   63.0799   46.5372 dc         1 CLA     -0.003900
    135 H13        84.6405   57.7419   43.9757 dc         1 CLA      0.019700
    136 H12        80.2765   54.2501   33.5946 dc         1 CLA      0.120400
    137 H11        81.8578   54.8310   34.1580 dc         1 CLA      0.120400
    138 C1         67.2929   61.5157   50.4419 Z1         2 LUT      0.509236
    139 C2         65.9387   61.6620   51.2363 Z2         2 LUT     -0.434695
    140 C3         65.4704   63.0921   51.5150 Z3         2 LUT      0.437453
    141 O3         66.1673   63.7124   52.5924 S1         2 LUT     -0.547129
    142 C4         65.5836   63.9850   50.3009 Z4         2 LUT     -0.468603
    143 C5         66.5152   63.5239   49.1382 Z5         2 LUT      0.279246
    144 C6         67.2949   62.3957   49.2353 Z6         2 LUT     -0.305473
    145 C7         67.7370   61.8330   48.0017 Z7         2 LUT      0.069402
    146 C8         68.6057   62.3729   47.1545 Z8         2 LUT     -0.191631
    147 C9         69.0129   61.9802   45.8059 Z9         2 LUT      0.196698
    148 C10        70.0790   62.6836   45.2276 Y1         2 LUT     -0.208611
    149 C11        70.7916   62.4452   43.9864 Y2         2 LUT      0.030784
    150 C12        71.9142   63.2140   43.5748 Y3         2 LUT     -0.220316
    151 C13        72.7227   62.9530   42.4283 Y4         2 LUT      0.215937
    152 C14        73.9338   63.6801   42.3540 Y5         2 LUT     -0.185793
    153 C15        75.0182   63.5970   41.3766 Y6         2 LUT     -0.057835
    154 C16        67.5355   60.0397   50.1987 Y7         2 LUT     -0.405615
    155 C17        68.4566   61.9634   51.3645 Y7         2 LUT     -0.405615
    156 C18        66.2069   64.3606   47.9123 Y9         2 LUT     -0.369639
    157 C19        68.4755   60.7518   45.0836 W1         2 LUT     -0.333362
    158 C20        72.2356   62.0900   41.2371 W2         2 LUT     -0.323439
    159 C21        86.8351   64.8124   35.5154 Z1         2 LUT      0.406104
    160 C22        87.3627   64.2439   34.2386 Z2         2 LUT     -0.404965
    161 C23        87.2237   65.0301   32.9475 Z3         2 LUT      0.391255
    162 O23        87.3920   64.0670   31.9517 S1         2 LUT     -0.528210
    163 C24        85.9083   65.7650   32.8327 W6         2 LUT     -0.258361
    164 C25        85.0199   65.8347   33.8651 Z5         2 LUT      0.133546
    165 C26        85.3571   65.1695   35.2386 W8         2 LUT     -0.147008
    166 C27        84.6191   65.7938   36.4559 Z7         2 LUT      0.023843
    167 C28        83.3688   65.4508   36.8268 Z8         2 LUT     -0.216987
    168 C29        82.7418   65.8265   38.0939 Z9         2 LUT      0.206524
    169 C30        81.5056   65.3060   38.3217 Y1         2 LUT     -0.215556
    170 C31        80.5866   65.4858   39.4789 Y2         2 LUT      0.025142
    171 C32        79.3507   64.8895   39.5414 Y3         2 LUT     -0.212209
    172 C33        78.4684   65.1901   40.6061 Y4         2 LUT      0.240937
    173 C34        77.2690   64.4408   40.6141 Y5         2 LUT     -0.218862
    174 C35        76.1701   64.3667   41.5416 Y6         2 LUT     -0.023547
    175 C36        87.6434   66.0696   35.8959 Y7         2 LUT     -0.393485
    176 C37        87.0154   63.8685   36.7592 Y7         2 LUT     -0.393485
    177 C38        83.6400   66.4172   33.6188 Y9         2 LUT     -0.387526
    178 C39        83.3874   66.8221   38.9653 W1         2 LUT     -0.322618
    179 C40        78.8783   66.1173   41.7440 W2         2 LUT     -0.358472
    180 H403       78.0363   66.6500   42.2561 R7         2 LUT      0.097720
    181 H402       79.5219   65.6803   42.5298 R7         2 LUT      0.097720
    182 H401       79.5180   66.9834   41.3902 R7         2 LUT      0.097720
    183 H393       83.7128   67.7248   38.4232 R4         2 LUT      0.082505
    184 H392       82.7644   67.1460   39.6849 R4         2 LUT      0.082505
    185 H391       84.3011   66.4295   39.5541 R4         2 LUT      0.082505
    186 H383       83.2522   67.0441   34.4513 R1         2 LUT      0.104030
    187 H382       83.8133   67.1495   32.8306 R1         2 LUT      0.104030
    188 H381       82.9526   65.6347   33.3450 R1         2 LUT      0.104030
    189 H373       86.6209   64.3067   37.7265 T4         2 LUT      0.089537
    190 H372       86.4315   62.9466   36.5390 T4         2 LUT      0.089537
    191 H371       88.0780   63.5984   36.9338 T4         2 LUT      0.089537
    192 H363       87.7490   66.8555   35.1216 T4         2 LUT      0.089537
    193 H362       87.3797   66.5653   36.8077 T4         2 LUT      0.089537
    194 H361       88.6587   65.7024   35.9882 T4         2 LUT      0.089537
    195 H222       88.4143   64.0302   34.3192 U2         2 LUT      0.127376
    196 H221       86.9457   63.2269   34.1021 U2         2 LUT      0.127376
    197 H203       71.5245   62.7214   40.6733 R7         2 LUT      0.087068
    198 H202       73.0253   61.8664   40.6024 R7         2 LUT      0.087068
    199 H201       71.8086   61.1315   41.5176 R7         2 LUT      0.087068
    200 H193       67.3807   61.0112   44.8464 R4         2 LUT      0.089716
    201 H192       68.9279   60.5519   44.1230 R4         2 LUT      0.089716
    202 H191       68.4520   59.8680   45.7185 R4         2 LUT      0.089716
    203 H183       66.2503   65.4393   48.1981 R1         2 LUT      0.094572
    204 H182       66.9769   64.2709   47.0836 R1         2 LUT      0.094572
    205 H181       65.2564   64.1217   47.5272 R1         2 LUT      0.094572
    206 H173       68.3737   61.5047   52.3733 T4         2 LUT      0.093752
    207 H172       69.2962   61.5721   50.7937 T4         2 LUT      0.093752
    208 H171       68.6348   63.0395   51.4959 T4         2 LUT      0.093752
    209 H163       66.7022   59.5232   49.7266 T4         2 LUT      0.093752
    210 H162       68.4252   59.7958   49.5032 T4         2 LUT      0.093752
    211 H161       67.6262   59.4711   51.1710 T4         2 LUT      0.093752
    212 HO3        65.8840   63.3119   53.4282 Q1         2 LUT      0.300121
    213 H8         69.0314   63.2807   47.3671 U7         2 LUT      0.080784
    214 H7         67.3126   60.9108   47.7082 U6         2 LUT      0.042190
    215 H42        64.5327   64.0121   49.8751 U5         2 LUT      0.145166
    216 H41        65.6938   65.0893   50.5745 U5         2 LUT      0.145166
    217 H35        76.1944   65.1162   42.3861 T3         2 LUT      0.077919
    218 H34        77.1351   63.7206   39.7675 T2         2 LUT      0.073626
    219 H32        78.9452   64.1882   38.7585 T1         2 LUT      0.092510
    220 H31        80.8939   66.0890   40.3262 U9         2 LUT      0.070048
    221 H30        81.0421   64.5606   37.6126 U8         2 LUT      0.085442
    222 H3         64.3817   62.9512   51.6688 U3         2 LUT     -0.031596
    223 H28        82.9764   64.7073   36.1548 U7         2 LUT      0.084728
    224 H27        85.1718   66.4403   37.0647 U6         2 LUT      0.087291
    225 H26        84.8920   64.1846   35.2291 Q6         2 LUT      0.075325
    226 H24        85.5627   66.1778   31.8527 Q5         2 LUT      0.094482
    227 H23        88.0955   65.7407   33.0391 U3         2 LUT     -0.024869
    228 H22        65.2200   61.2232   50.5992 U2         2 LUT      0.127376
    229 H21        65.9197   60.9933   52.0871 U2         2 LUT      0.127376
    230 H15        74.9732   63.0559   40.4478 T3         2 LUT      0.093200
    231 H14        74.2085   64.3997   43.1022 T2         2 LUT      0.068865
    232 H12        72.3226   64.0229   44.1898 T1         2 LUT      0.095507
    233 H11        70.4750   61.6524   43.3600 U9         2 LUT      0.068930
    234 H10        70.4660   63.6298   45.7163 U8         2 LUT      0.083911
    235 H1         87.8970   64.3792   31.1676 Q1         2 LUT      0.297311
@<TRIPOS>BOND
    1     6     1 1
    2     7     2 1
    3     8     3 1
    4     9     4 1
    5    11     4 1
    6    12     6 1
    7    13     9 1
    8    16     9 1
    9    25     5 1
   10    25    16 1
   11    26    10 1
   12    26    17 1
   13    27    18 1
   14    28    14 1
   15    28    19 1
   16    29    12 1
   17    30    13 1
   18    31    24 1
   19    32     1 1
   20    32    25 1
   21    33    21 1
   22    33    26 1
   23    34    22 1
   24    34    27 1
   25    35    23 1
   26    35    28 1
   27    36    12 1
   28    36    24 1
   29    37    13 1
   30    37    15 1
   31    38    31 1
   32    39    20 1
   33    39    32 1
   34    40     2 1
   35    40    33 1
   36    41     3 1
   37    41    34 1
   38    42     4 1
   39    42    35 1
   40    43    38 1
   41    44     5 1
   42    44    17 1
   43    44    39 1
   44    45    10 1
   45    45    18 1
   46    45    40 1
   47    46    19 1
   48    46    41 1
   49    47    14 1
   50    47    16 1
   51    47    42 1
   52    48    38 1
   53    49    48 1
   54    50    49 1
   55    51    50 1
   56    52    51 1
   57    53    51 1
   58    54    53 1
   59    55    54 1
   60    56    55 1
   61    57    56 1
   62    58    56 1
   63    59    58 1
   64    60    59 1
   65    61    60 1
   66    62    61 1
   67    63    61 1
   68    64    27 1
   69    64    46 1
   70    65     5 1
   71    65    10 1
   72    65    64 1
   73    65    14 1
   74    66    23 1
   75    67    23 1
   76    68    23 1
   77    69    22 1
   78    70    22 1
   79    71    22 1
   80    72    21 1
   81    73    21 1
   82    74    21 1
   83    75    20 1
   84    76    20 1
   85    77    20 1
   86    78    15 1
   87    79    15 1
   88    80    15 1
   89    81     8 1
   90    82     8 1
   91    83     8 1
   92    84     7 1
   93    85     7 1
   94    86     6 1
   95    87     6 1
   96    88     3 1
   97    89     3 1
   98    90     1 1
   99    91     1 1
  100    92    63 1
  101    93    63 1
  102    94    63 1
  103    95    62 1
  104    96    62 1
  105    97    62 1
  106    98    60 1
  107    99    60 1
  108   100    59 1
  109   101    59 1
  110   102    58 1
  111   103    58 1
  112   104    57 1
  113   105    57 1
  114   106    57 1
  115   107    55 1
  116   108    55 1
  117   109    54 1
  118   110    54 1
  119   111    53 1
  120   112    53 1
  121   113    19 1
  122   114    18 1
  123   115    17 1
  124   116     9 1
  125   117     2 1
  126   118    52 1
  127   119    52 1
  128   120    52 1
  129   121    51 1
  130   122    50 1
  131   123    50 1
  132   124    49 1
  133   125    49 1
  134   126    48 1
  135   127    48 1
  136   128    43 1
  137   129    43 1
  138   130    43 1
  139   131    39 1
  140   132    32 1
  141   133    31 1
  142   134    61 1
  143   135    56 1
  144   136    24 1
  145   137    24 1
  146   139   138 1
  147   140   139 1
  148   141   140 1
  149   142   140 1
  150   143   142 1
  151   144   138 1
  152   144   143 1
  153   145   144 1
  154   146   145 1
  155   147   146 1
  156   148   147 1
  157   149   148 1
  158   150   149 1
  159   151   150 1
  160   152   151 1
  161   153   152 1
  162   154   138 1
  163   155   138 1
  164   156   143 1
  165   157   147 1
  166   158   151 1
  167   160   159 1
  168   161   160 1
  169   162   161 1
  170   163   161 1
  171   164   163 1
  172   165   159 1
  173   165   164 1
  174   166   165 1
  175   167   166 1
  176   168   167 1
  177   169   168 1
  178   170   169 1
  179   171   170 1
  180   172   171 1
  181   173   172 1
  182   174   153 1
  183   174   173 1
  184   175   159 1
  185   176   159 1
  186   177   164 1
  187   178   168 1
  188   179   172 1
  189   180   179 1
  190   181   179 1
  191   182   179 1
  192   183   178 1
  193   184   178 1
  194   185   178 1
  195   186   177 1
  196   187   177 1
  197   188   177 1
  198   189   176 1
  199   190   176 1
  200   191   176 1
  201   192   175 1
  202   193   175 1
  203   194   175 1
  204   195   160 1
  205   196   160 1
  206   197   158 1
  207   198   158 1
  208   199   158 1
  209   200   157 1
  210   201   157 1
  211   202   157 1
  212   203   156 1
  213   204   156 1
  214   205   156 1
  215   206   155 1
  216   207   155 1
  217   208   155 1
  218   209   154 1
  219   210   154 1
  220   211   154 1
  221   212   141 1
  222   213   146 1
  223   214   145 1
  224   215   142 1
  225   216   142 1
  226   217   174 1
  227   218   173 1
  228   219   171 1
  229   220   170 1
  230   221   169 1
  231   222   140 1
  232   223   167 1
  233   224   166 1
  234   225   165 1
  235   226   163 1
  236   227   161 1
  237   228   139 1
  238   229   139 1
  239   230   153 1
  240   231   152 1
  241   232   150 1
  242   233   149 1
  243   234   148 1
  244   235   162 1
  245   65    153 1
  246   65    174 1
@<TRIPOS>SUBSTRUCTURE
      1 CLA               1 ****               0 ****  **** 
      2 LUT             138 ****               0 ****  **** 
