@<TRIPOS>MOLECULE
Cpptraj generated mol2 file.
  235   246     2     0     0
SMALL
USER_CHARGES


@<TRIPOS>ATOM
      1 CAA        78.2532   58.4577   33.8538 a2         1 CLA     -0.055900
      2 CAB        78.7706   61.9787   43.1907 c8         1 CLA     -0.148500
      3 CAC        71.6341   57.9965   42.4964 a2         1 CLA     -0.012600
      4 CAD        73.9557   55.9014   35.1965 ck         1 CLA      0.398800
      5 NA         77.3117   58.8793   37.3626 ns         1 CLA     -0.225500
      6 CBA        79.5339   58.2896   33.0261 a2         1 CLA     -0.135000
      7 CBB        79.9202   61.6389   43.9012 c0         1 CLA     -0.395200
      8 CBC        71.8661   56.4422   42.4111 a3         1 CLA     -0.037700
      9 CBD        75.4521   56.4439   34.8629 a1         1 CLA     -0.053900
     10 NB         77.3496   60.2267   40.0557 nm         1 CLA     -0.295700
     11 OBD        73.2862   55.1873   34.4791 o2         1 CLA     -0.494600
     12 CGA        79.7976   56.8603   32.6901 c4         1 CLA      0.827000
     13 CGD        76.3676   55.3011   34.5204 c4         1 CLA      0.655300
     14 ND         74.5704   57.9640   38.0241 nm         1 CLA     -0.291600
     15 CED        77.0353   53.0443   35.0907 a3         1 CLA      0.005400
     16 CHA        75.8966   57.4293   35.9947 cs         1 CLA     -0.123800
     17 CHB        79.1340   60.0870   38.3906 aa         1 CLA     -0.291900
     18 CHC        76.0699   60.3403   42.1675 aa         1 CLA     -0.090400
     19 CHD        72.7058   58.0064   39.5624 aa         1 CLA     -0.052000
     20 CMA        80.7713   58.3736   36.4402 a3         1 CLA     -0.230700
     21 CMB        80.6423   61.8974   40.4540 a3         1 CLA     -0.180800
     22 CMC        73.6057   59.9006   44.2210 a3         1 CLA     -0.134000
     23 CMD        71.3334   56.2991   37.3064 a3         1 CLA     -0.141100
     24 C1         80.4419   54.7673   33.4986 a2         1 CLA      0.023000
     25 C1A        77.0972   58.1455   36.2083 ac         1 CLA     -0.015100
     26 C1B        78.6316   60.5023   39.6450 cr         1 CLA      0.054700
     27 C1C        74.7930   59.7924   41.8094 cn         1 CLA     -0.005600
     28 C1D        73.2893   57.6385   38.3476 ap         1 CLA     -0.047300
     29 O1A        79.4075   56.3546   31.6057 o2         1 CLA     -0.610800
     30 O1D        77.1292   55.3044   33.5504 o2         1 CLA     -0.558200
     31 C2         81.1773   54.3507   34.7265 c8         1 CLA     -0.325100
     32 C2A        78.3779   58.0632   35.3577 a1         1 CLA      0.098600
     33 C2B        79.2787   61.3042   40.6706 cb         1 CLA      0.088500
     34 C2C        73.7425   59.6062   42.6767 cb         1 CLA      0.053700
     35 C2D        72.7011   56.7920   37.3721 cb         1 CLA      0.058900
     36 O2A        80.5105   56.2281   33.6259 o1         1 CLA     -0.437200
     37 O2D        76.3262   54.3084   35.4461 o1         1 CLA     -0.357600
     38 C3         82.1173   53.3758   34.7187 c5         1 CLA      0.031200
     39 C3A        79.4163   58.9744   36.1588 a1         1 CLA      0.166800
     40 C3B        78.4519   61.3930   41.8172 cb         1 CLA      0.035000
     41 C3C        72.8708   58.7603   41.9911 cb         1 CLA     -0.089900
     42 C3D        73.6941   56.5794   36.4599 cb         1 CLA     -0.035900
     43 C4         81.6816   51.9763   34.9775 a3         1 CLA     -0.053300
     44 C4A        78.5990   59.3406   37.3913 ac         1 CLA      0.001800
     45 C4B        77.2227   60.6118   41.3887 cn         1 CLA     -0.020900
     46 C4C        73.3309   58.6523   40.6564 cr         1 CLA     -0.044400
     47 C4D        74.7989   57.4401   36.8490 c6         1 CLA     -0.046000
     48 C5         83.6174   53.6000   34.4895 a2         1 CLA     -0.070400
     49 C6         84.0751   55.0217   34.9164 a2         1 CLA      0.043900
     50 C7         84.1628   55.2278   36.4480 a2         1 CLA     -0.150000
     51 C8         84.3962   56.6646   36.9685 a1         1 CLA      0.064200
     52 C9         85.6183   57.3840   36.3040 a3         1 CLA     -0.259300
     53 C10        84.6144   56.6850   38.5142 a2         1 CLA     -0.071900
     54 C11        83.3394   56.5988   39.2873 a2         1 CLA      0.014500
     55 C12        83.6012   56.8973   40.6857 a2         1 CLA     -0.112100
     56 C13        82.5893   56.2907   41.7542 a1         1 CLA      0.089200
     57 C14        81.2567   56.9892   41.6143 a3         1 CLA     -0.239100
     58 C15        83.0983   56.1896   43.1666 a2         1 CLA     -0.102200
     59 C16        83.5129   57.5327   43.7865 a2         1 CLA      0.023900
     60 C17        83.9237   57.2794   45.2286 a2         1 CLA     -0.105700
     61 C18        84.2476   58.5336   46.0055 a1         1 CLA      0.206800
     62 C19        83.0869   59.4663   46.2145 a3         1 CLA     -0.280100
     63 C20        85.0070   58.2759   47.3394 a3         1 CLA     -0.280100
     64 NC         74.5509   59.2653   40.5785 nx         1 CLA     -0.309200
     65 MG         75.9130   59.2337   38.9671 mg         1 CLA      0.895000
     66 HMD3       71.0483   56.0974   38.2854 dc         1 CLA      0.064300
     67 HMD2       70.7329   57.0786   36.9664 dc         1 CLA      0.064300
     68 HMD1       71.2921   55.4032   36.7076 dc         1 CLA      0.064300
     69 HMC3       74.2581   60.6643   44.3743 dc         1 CLA      0.052100
     70 HMC2       72.5966   60.2668   44.3772 dc         1 CLA      0.052100
     71 HMC1       73.7432   59.0398   44.8767 dc         1 CLA      0.052100
     72 HMB3       80.8433   62.6368   41.2103 dc         1 CLA      0.063600
     73 HMB2       81.4486   61.1291   40.5440 dc         1 CLA      0.063600
     74 HMB1       80.7485   62.4060   39.4769 dc         1 CLA      0.063600
     75 HMA3       81.3046   58.2357   35.5508 dc         1 CLA      0.058300
     76 HMA2       81.4279   58.9410   37.0931 dc         1 CLA      0.058300
     77 HMA1       80.7998   57.3403   36.8037 dc         1 CLA      0.058300
     78 HED3       76.9072   52.9813   34.0134 dc         1 CLA      0.079300
     79 HED2       78.1204   53.0422   35.2864 dc         1 CLA      0.079300
     80 HED1       76.5317   52.2574   35.6073 dc         1 CLA      0.079300
     81 HBC3       72.8639   56.2489   42.7241 dc         1 CLA      0.016300
     82 HBC2       71.1835   55.8488   43.0653 dc         1 CLA      0.016300
     83 HBC1       71.6799   56.0703   41.4054 dc         1 CLA      0.016300
     84 HBB2       80.1235   62.0798   44.9333 da         1 CLA      0.183000
     85 HBB1       80.6906   60.9423   43.4973 da         1 CLA      0.183000
     86 HBA2       79.4602   58.8839   32.1273 dc         1 CLA      0.029400
     87 HBA1       80.4370   58.7113   33.5911 dc         1 CLA      0.029400
     88 HAC2       71.4375   58.2526   43.5475 dc         1 CLA      0.029300
     89 HAC1       70.7791   58.4347   41.9314 dc         1 CLA      0.029300
     90 HAA2       77.3849   57.9454   33.3697 dc         1 CLA      0.028700
     91 HAA1       78.0097   59.5395   33.7645 dc         1 CLA      0.028700
     92 H203       85.0798   59.2371   47.8742 dc         1 CLA      0.065600
     93 H202       84.3484   57.6026   47.8748 dc         1 CLA      0.065600
     94 H201       85.9350   57.8470   47.1048 dc         1 CLA      0.065600
     95 H193       82.2181   59.0112   46.6057 dc         1 CLA      0.065600
     96 H192       83.2966   60.2424   46.8560 dc         1 CLA      0.065600
     97 H191       82.7648   59.9156   45.2833 dc         1 CLA      0.065600
     98 H172       83.1504   56.6265   45.6624 dc         1 CLA      0.027600
     99 H171       84.8787   56.6930   45.3418 dc         1 CLA      0.027600
    100 H162       84.2507   58.0067   43.1682 dc         1 CLA      0.002900
    101 H161       82.6911   58.2212   43.7759 dc         1 CLA      0.002900
    102 H152       82.2828   55.7552   43.7849 dc         1 CLA      0.029100
    103 H151       83.9552   55.5500   43.1515 dc         1 CLA      0.029100
    104 H143       80.6517   56.3603   40.9807 dc         1 CLA      0.063600
    105 H142       80.6225   57.1868   42.5554 dc         1 CLA      0.063600
    106 H141       81.3530   57.8581   40.9799 dc         1 CLA      0.063600
    107 H122       84.5875   56.4261   40.9585 dc         1 CLA      0.032500
    108 H121       83.6633   57.9771   40.7432 dc         1 CLA      0.032500
    109 H112       82.5839   57.3605   38.9764 dc         1 CLA      0.006600
    110 H111       82.8833   55.6143   39.2479 dc         1 CLA      0.006600
    111 H102       85.4521   56.0291   38.7711 dc         1 CLA      0.024100
    112 H101       85.0495   57.6965   38.7597 dc         1 CLA      0.024100
    113 HHD        71.7564   57.5837   39.8305 da         1 CLA      0.174300
    114 HHC        76.1462   60.5876   43.2304 da         1 CLA      0.136800
    115 HHB        80.1665   60.4771   38.3166 da         1 CLA      0.138300
    116 HBD        75.3220   57.1586   34.0772 dc         1 CLA      0.107700
    117 HAB        78.0453   62.6387   43.6954 da         1 CLA      0.155200
    118 H93        85.9077   58.4054   36.7412 dc         1 CLA      0.069500
    119 H92        86.4409   56.6697   36.3706 dc         1 CLA      0.069500
    120 H91        85.3483   57.6270   35.2591 dc         1 CLA      0.069500
    121 H8         83.5248   57.2062   36.5958 dc         1 CLA      0.029300
    122 H72        83.2566   54.7892   36.8146 dc         1 CLA      0.044400
    123 H71        84.9701   54.7351   36.9048 dc         1 CLA      0.044400
    124 H62        85.0568   55.2782   34.4462 dc         1 CLA      0.015600
    125 H61        83.5976   55.8505   34.4785 dc         1 CLA      0.015600
    126 H52        84.2419   52.9232   35.1082 dc         1 CLA      0.033200
    127 H51        83.9171   53.4430   33.4738 dc         1 CLA      0.033200
    128 H43        82.3451   51.4727   35.6924 dc         1 CLA      0.037000
    129 H42        80.7009   51.9762   35.3390 dc         1 CLA      0.037000
    130 H41        81.6320   51.4522   34.0031 dc         1 CLA      0.037000
    131 H3A        79.6059   59.8564   35.5107 dc         1 CLA      0.041100
    132 H2A        78.6863   57.0095   35.3311 dc         1 CLA      0.083100
    133 H2         80.9247   54.8621   35.6975 da         1 CLA      0.180900
    134 H18        85.0620   59.1090   45.4396 dc         1 CLA     -0.003900
    135 H13        82.2973   55.2166   41.7722 dc         1 CLA      0.019700
    136 H12        79.4418   54.3810   33.7381 dc         1 CLA      0.120400
    137 H11        80.7563   54.3374   32.5527 dc         1 CLA      0.120400
    138 C1         67.8269   61.0576   50.0166 Z1         2 LUT      0.509236
    139 C2         66.4909   60.9524   50.7828 Z2         2 LUT     -0.434695
    140 C3         65.7178   62.1996   51.1031 Z3         2 LUT      0.437453
    141 O3         66.1414   62.8321   52.4031 S1         2 LUT     -0.547129
    142 C4         65.9256   63.2422   50.0067 Z4         2 LUT     -0.468603
    143 C5         66.7548   62.9500   48.8047 Z5         2 LUT      0.279246
    144 C6         67.7270   62.0159   48.8189 Z6         2 LUT     -0.305473
    145 C7         68.2309   61.4787   47.5459 Z7         2 LUT      0.069402
    146 C8         69.0316   62.1455   46.6828 Z8         2 LUT     -0.191631
    147 C9         69.5969   61.7393   45.4077 Z9         2 LUT      0.196698
    148 C10        70.6489   62.5139   44.9371 Y1         2 LUT     -0.208611
    149 C11        71.3504   62.4820   43.7062 Y2         2 LUT      0.030784
    150 C12        72.5786   62.9989   43.4578 Y3         2 LUT     -0.220316
    151 C13        73.4436   63.1046   42.3079 Y4         2 LUT      0.215937
    152 C14        74.6609   63.7911   42.4369 Y5         2 LUT     -0.185793
    153 C15        75.6134   64.1136   41.4358 Y6         2 LUT     -0.057835
    154 C16        68.3738   59.5974   49.7007 Y7         2 LUT     -0.405615
    155 C17        68.7413   61.5855   51.1501 Y7         2 LUT     -0.405615
    156 C18        66.2243   63.5972   47.5333 Y9         2 LUT     -0.369639
    157 C19        69.0238   60.5299   44.6603 W1         2 LUT     -0.333362
    158 C20        72.6683   62.8159   40.9766 W2         2 LUT     -0.323439
    159 C21        86.9314   65.2886   35.0012 Z1         2 LUT      0.406104
    160 C22        87.5623   64.9666   33.5730 Z2         2 LUT     -0.404965
    161 C23        87.5023   66.1455   32.5547 Z3         2 LUT      0.391255
    162 O23        88.2272   65.5955   31.4236 S1         2 LUT     -0.528210
    163 C24        86.2134   66.8524   32.5444 W6         2 LUT     -0.258361
    164 C25        85.3166   66.9244   33.5478 Z5         2 LUT      0.133546
    165 C26        85.5237   65.9711   34.8218 W8         2 LUT     -0.147008
    166 C27        84.9377   66.4994   36.1750 Z7         2 LUT      0.023843
    167 C28        83.9331   65.8747   36.7893 Z8         2 LUT     -0.216987
    168 C29        83.1563   66.2396   38.0223 Z9         2 LUT      0.206524
    169 C30        81.9587   65.5619   38.2715 Y1         2 LUT     -0.215556
    170 C31        81.0842   65.8820   39.4202 Y2         2 LUT      0.025142
    171 C32        79.8707   65.3300   39.5391 Y3         2 LUT     -0.212209
    172 C33        78.9918   65.5074   40.6209 Y4         2 LUT      0.240937
    173 C34        77.7197   64.9034   40.6308 Y5         2 LUT     -0.218862
    174 C35        76.7272   64.8654   41.5683 Y6         2 LUT     -0.023547
    175 C36        87.9819   66.2508   35.7003 Y7         2 LUT     -0.393485
    176 C37        86.8728   63.9352   35.7523 Y7         2 LUT     -0.393485
    177 C38        83.9681   67.4899   33.3425 Y9         2 LUT     -0.387526
    178 C39        83.7584   67.3099   38.9571 W1         2 LUT     -0.322618
    179 C40        79.4219   66.4030   41.8265 W2         2 LUT     -0.358472
    180 H403       79.3133   67.4829   41.7114 R7         2 LUT      0.097720
    181 H402       78.7573   66.0860   42.6011 R7         2 LUT      0.097720
    182 H401       80.3500   66.0863   42.2884 R7         2 LUT      0.097720
    183 H393       83.2468   67.5021   39.9539 R4         2 LUT      0.082505
    184 H392       84.8047   67.0939   39.1946 R4         2 LUT      0.082505
    185 H391       83.8115   68.2399   38.4042 R4         2 LUT      0.082505
    186 H383       83.6471   67.2584   32.3383 R1         2 LUT      0.104030
    187 H382       83.2216   67.1064   34.0342 R1         2 LUT      0.104030
    188 H381       84.0135   68.5444   33.4088 R1         2 LUT      0.104030
    189 H373       87.8958   63.5274   35.8536 T4         2 LUT      0.089537
    190 H372       86.4740   64.0711   36.7447 T4         2 LUT      0.089537
    191 H371       86.2719   63.1443   35.2619 T4         2 LUT      0.089537
    192 H363       88.8680   65.7041   35.9672 T4         2 LUT      0.089537
    193 H362       88.1865   67.1930   35.1499 T4         2 LUT      0.089537
    194 H361       87.4903   66.6704   36.5719 T4         2 LUT      0.089537
    195 H222       88.5925   64.6549   33.7178 U2         2 LUT      0.127376
    196 H221       86.9652   64.0741   33.1408 U2         2 LUT      0.127376
    197 H203       71.9103   63.5532   41.0204 R7         2 LUT      0.087068
    198 H202       73.1855   62.9438   39.9688 R7         2 LUT      0.087068
    199 H201       72.2737   61.8912   40.9867 R7         2 LUT      0.087068
    200 H193       68.5730   59.7445   45.2808 R4         2 LUT      0.089716
    201 H192       68.1126   60.8548   44.0884 R4         2 LUT      0.089716
    202 H191       69.7361   60.0501   44.0204 R4         2 LUT      0.089716
    203 H183       65.2604   64.0933   47.7263 R1         2 LUT      0.094572
    204 H182       66.8226   64.5226   47.4349 R1         2 LUT      0.094572
    205 H181       66.2627   62.9947   46.6033 R1         2 LUT      0.094572
    206 H173       68.3629   62.5332   51.5424 T4         2 LUT      0.093752
    207 H172       68.8071   60.9195   51.9643 T4         2 LUT      0.093752
    208 H171       69.6420   61.9646   50.6187 T4         2 LUT      0.093752
    209 H163       69.2675   59.6066   49.1202 T4         2 LUT      0.093752
    210 H162       68.4467   58.9920   50.6030 T4         2 LUT      0.093752
    211 H161       67.7186   59.1278   49.0650 T4         2 LUT      0.093752
    212 HO3        65.7726   62.3009   53.0876 Q1         2 LUT      0.300121
    213 H8         69.3979   63.1042   47.0445 U7         2 LUT      0.080784
    214 H7         67.8360   60.4613   47.1465 U6         2 LUT      0.042190
    215 H42        64.9606   63.6242   49.7591 U5         2 LUT      0.145166
    216 H41        66.3759   64.1492   50.3907 U5         2 LUT      0.145166
    217 H35        76.8490   65.3851   42.5207 T3         2 LUT      0.077919
    218 H34        77.6378   64.2971   39.6958 T2         2 LUT      0.073626
    219 H32        79.5467   64.7691   38.7280 T1         2 LUT      0.092510
    220 H31        81.3824   66.6162   40.1521 U9         2 LUT      0.070048
    221 H30        81.5810   64.8574   37.5046 U8         2 LUT      0.085442
    222 H3         64.6532   62.0370   51.0488 U3         2 LUT     -0.031596
    223 H28        83.5446   64.9774   36.4436 U7         2 LUT      0.084728
    224 H27        85.2886   67.4742   36.5624 U6         2 LUT      0.087291
    225 H26        84.8985   65.1758   34.4199 Q6         2 LUT      0.075325
    226 H24        85.9494   67.3416   31.6778 Q5         2 LUT      0.094482
    227 H23        88.1998   66.9290   32.9877 U3         2 LUT     -0.024869
    228 H22        65.8387   60.3802   50.1240 U2         2 LUT      0.127376
    229 H21        66.6409   60.2640   51.6068 U2         2 LUT      0.127376
    230 H15        75.5649   63.5078   40.5849 T3         2 LUT      0.093200
    231 H14        74.8894   64.0906   43.4781 T2         2 LUT      0.068865
    232 H12        73.0602   63.4758   44.3032 T1         2 LUT      0.095507
    233 H11        70.7512   62.0298   42.8374 U9         2 LUT      0.068930
    234 H10        70.9763   63.3044   45.5822 U8         2 LUT      0.083911
    235 H1         87.6391   65.6289   30.6346 Q1         2 LUT      0.297311
@<TRIPOS>BOND
    1     6     1 1
    2     7     2 1
    3     8     3 1
    4     9     4 1
    5    11     4 1
    6    12     6 1
    7    13     9 1
    8    16     9 1
    9    25     5 1
   10    25    16 1
   11    26    10 1
   12    26    17 1
   13    27    18 1
   14    28    14 1
   15    28    19 1
   16    29    12 1
   17    30    13 1
   18    31    24 1
   19    32     1 1
   20    32    25 1
   21    33    21 1
   22    33    26 1
   23    34    22 1
   24    34    27 1
   25    35    23 1
   26    35    28 1
   27    36    12 1
   28    36    24 1
   29    37    13 1
   30    37    15 1
   31    38    31 1
   32    39    20 1
   33    39    32 1
   34    40     2 1
   35    40    33 1
   36    41     3 1
   37    41    34 1
   38    42     4 1
   39    42    35 1
   40    43    38 1
   41    44     5 1
   42    44    17 1
   43    44    39 1
   44    45    10 1
   45    45    18 1
   46    45    40 1
   47    46    19 1
   48    46    41 1
   49    47    14 1
   50    47    16 1
   51    47    42 1
   52    48    38 1
   53    49    48 1
   54    50    49 1
   55    51    50 1
   56    52    51 1
   57    53    51 1
   58    54    53 1
   59    55    54 1
   60    56    55 1
   61    57    56 1
   62    58    56 1
   63    59    58 1
   64    60    59 1
   65    61    60 1
   66    62    61 1
   67    63    61 1
   68    64    27 1
   69    64    46 1
   70    65     5 1
   71    65    10 1
   72    65    64 1
   73    65    14 1
   74    66    23 1
   75    67    23 1
   76    68    23 1
   77    69    22 1
   78    70    22 1
   79    71    22 1
   80    72    21 1
   81    73    21 1
   82    74    21 1
   83    75    20 1
   84    76    20 1
   85    77    20 1
   86    78    15 1
   87    79    15 1
   88    80    15 1
   89    81     8 1
   90    82     8 1
   91    83     8 1
   92    84     7 1
   93    85     7 1
   94    86     6 1
   95    87     6 1
   96    88     3 1
   97    89     3 1
   98    90     1 1
   99    91     1 1
  100    92    63 1
  101    93    63 1
  102    94    63 1
  103    95    62 1
  104    96    62 1
  105    97    62 1
  106    98    60 1
  107    99    60 1
  108   100    59 1
  109   101    59 1
  110   102    58 1
  111   103    58 1
  112   104    57 1
  113   105    57 1
  114   106    57 1
  115   107    55 1
  116   108    55 1
  117   109    54 1
  118   110    54 1
  119   111    53 1
  120   112    53 1
  121   113    19 1
  122   114    18 1
  123   115    17 1
  124   116     9 1
  125   117     2 1
  126   118    52 1
  127   119    52 1
  128   120    52 1
  129   121    51 1
  130   122    50 1
  131   123    50 1
  132   124    49 1
  133   125    49 1
  134   126    48 1
  135   127    48 1
  136   128    43 1
  137   129    43 1
  138   130    43 1
  139   131    39 1
  140   132    32 1
  141   133    31 1
  142   134    61 1
  143   135    56 1
  144   136    24 1
  145   137    24 1
  146   139   138 1
  147   140   139 1
  148   141   140 1
  149   142   140 1
  150   143   142 1
  151   144   138 1
  152   144   143 1
  153   145   144 1
  154   146   145 1
  155   147   146 1
  156   148   147 1
  157   149   148 1
  158   150   149 1
  159   151   150 1
  160   152   151 1
  161   153   152 1
  162   154   138 1
  163   155   138 1
  164   156   143 1
  165   157   147 1
  166   158   151 1
  167   160   159 1
  168   161   160 1
  169   162   161 1
  170   163   161 1
  171   164   163 1
  172   165   159 1
  173   165   164 1
  174   166   165 1
  175   167   166 1
  176   168   167 1
  177   169   168 1
  178   170   169 1
  179   171   170 1
  180   172   171 1
  181   173   172 1
  182   174   153 1
  183   174   173 1
  184   175   159 1
  185   176   159 1
  186   177   164 1
  187   178   168 1
  188   179   172 1
  189   180   179 1
  190   181   179 1
  191   182   179 1
  192   183   178 1
  193   184   178 1
  194   185   178 1
  195   186   177 1
  196   187   177 1
  197   188   177 1
  198   189   176 1
  199   190   176 1
  200   191   176 1
  201   192   175 1
  202   193   175 1
  203   194   175 1
  204   195   160 1
  205   196   160 1
  206   197   158 1
  207   198   158 1
  208   199   158 1
  209   200   157 1
  210   201   157 1
  211   202   157 1
  212   203   156 1
  213   204   156 1
  214   205   156 1
  215   206   155 1
  216   207   155 1
  217   208   155 1
  218   209   154 1
  219   210   154 1
  220   211   154 1
  221   212   141 1
  222   213   146 1
  223   214   145 1
  224   215   142 1
  225   216   142 1
  226   217   174 1
  227   218   173 1
  228   219   171 1
  229   220   170 1
  230   221   169 1
  231   222   140 1
  232   223   167 1
  233   224   166 1
  234   225   165 1
  235   226   163 1
  236   227   161 1
  237   228   139 1
  238   229   139 1
  239   230   153 1
  240   231   152 1
  241   232   150 1
  242   233   149 1
  243   234   148 1
  244   235   162 1
  245   65    153 1
  246   65    174 1
@<TRIPOS>SUBSTRUCTURE
      1 CLA               1 ****               0 ****  **** 
      2 LUT             138 ****               0 ****  **** 
