@<TRIPOS>MOLECULE
Cpptraj generated mol2 file.
  235   246     2     0     0
SMALL
USER_CHARGES


@<TRIPOS>ATOM
      1 CAA        77.7314   57.1899   32.8937 a2         1 CLA     -0.055900
      2 CAB        77.9558   61.2497   41.7484 c8         1 CLA     -0.148500
      3 CAC        70.7773   57.4503   41.3832 a2         1 CLA     -0.012600
      4 CAD        73.5538   54.6132   34.1616 ck         1 CLA      0.398800
      5 NA         76.7702   57.6315   36.2933 ns         1 CLA     -0.225500
      6 CBA        78.8630   56.8369   31.9711 a2         1 CLA     -0.135000
      7 CBB        79.1755   61.2449   42.3740 c0         1 CLA     -0.395200
      8 CBC        70.6450   55.9880   41.3841 a3         1 CLA     -0.037700
      9 CBD        75.0370   55.1142   33.9488 a1         1 CLA     -0.053900
     10 NB         76.6456   59.2340   38.7816 nm         1 CLA     -0.295700
     11 OBD        73.0276   53.8004   33.4412 o2         1 CLA     -0.494600
     12 CGA        79.1083   55.3494   31.7851 c4         1 CLA      0.827000
     13 CGD        75.9068   53.9309   33.9018 c4         1 CLA      0.655300
     14 ND         73.8307   56.8495   36.8383 nm         1 CLA     -0.291600
     15 CED        76.7954   52.1653   35.1372 a3         1 CLA      0.005400
     16 CHA        75.3710   56.1234   35.0472 cs         1 CLA     -0.123800
     17 CHB        78.5483   58.9866   37.2449 aa         1 CLA     -0.291900
     18 CHC        75.3464   59.6234   40.7746 aa         1 CLA     -0.090400
     19 CHD        72.0425   56.8225   38.5253 aa         1 CLA     -0.052000
     20 CMA        80.0086   56.6544   35.6896 a3         1 CLA     -0.230700
     21 CMB        79.9958   61.0412   39.2301 a3         1 CLA     -0.180800
     22 CMC        73.0626   59.2703   42.8407 a3         1 CLA     -0.134000
     23 CMD        70.7742   54.7220   36.4622 a3         1 CLA     -0.141100
     24 C1         80.2608   53.3478   32.4859 a2         1 CLA      0.023000
     25 C1A        76.6157   56.7777   35.2694 ac         1 CLA     -0.015100
     26 C1B        77.9202   59.5219   38.4080 cr         1 CLA      0.054700
     27 C1C        74.1396   58.9108   40.5151 cn         1 CLA     -0.005600
     28 C1D        72.5889   56.4241   37.2898 ap         1 CLA     -0.047300
     29 O1A        78.5283   54.6808   30.9162 o2         1 CLA     -0.610800
     30 O1D        76.8183   53.7652   33.0903 o2         1 CLA     -0.558200
     31 C2         80.8275   53.0416   33.8814 c8         1 CLA     -0.325100
     32 C2A        77.8057   56.8190   34.3589 a1         1 CLA      0.098600
     33 C2B        78.5498   60.4183   39.3239 cb         1 CLA      0.088500
     34 C2C        73.0454   58.6911   41.4842 cb         1 CLA      0.053700
     35 C2D        72.0913   55.5120   36.2783 cb         1 CLA      0.058900
     36 O2A        79.9824   54.7828   32.6196 o1         1 CLA     -0.437200
     37 O2D        75.7111   53.1033   34.9221 o1         1 CLA     -0.357600
     38 C3         81.4689   51.8619   34.1176 c5         1 CLA      0.031200
     39 C3A        78.8759   57.5919   35.1698 a1         1 CLA      0.166800
     40 C3B        77.7063   60.5369   40.4315 cb         1 CLA      0.035000
     41 C3C        72.0634   57.9518   40.7187 cb         1 CLA     -0.089900
     42 C3D        73.0845   55.3863   35.3332 cb         1 CLA     -0.035900
     43 C4         80.6163   50.7225   34.6959 a3         1 CLA     -0.053300
     44 C4A        78.0494   58.1400   36.2874 ac         1 CLA      0.001800
     45 C4B        76.4829   59.8636   39.9667 cn         1 CLA     -0.020900
     46 C4C        72.5958   57.7222   39.4254 cr         1 CLA     -0.044400
     47 C4D        74.1760   56.2253   35.7633 c6         1 CLA     -0.046000
     48 C5         82.9644   51.6286   33.9532 a2         1 CLA     -0.070400
     49 C6         83.8722   52.7439   34.5250 a2         1 CLA      0.043900
     50 C7         83.8906   52.6618   36.1241 a2         1 CLA     -0.150000
     51 C8         84.6343   53.8781   36.7264 a1         1 CLA      0.064200
     52 C9         86.2264   53.7844   36.4118 a3         1 CLA     -0.259300
     53 C10        84.3974   54.2697   38.2462 a2         1 CLA     -0.071900
     54 C11        82.9742   54.7037   38.6158 a2         1 CLA      0.014500
     55 C12        82.9679   55.2372   40.0999 a2         1 CLA     -0.112100
     56 C13        81.5507   55.5914   40.7577 a1         1 CLA      0.089200
     57 C14        80.6406   56.4464   39.8540 a3         1 CLA     -0.239100
     58 C15        81.5052   56.1420   42.1975 a2         1 CLA     -0.102200
     59 C16        82.0578   57.5815   42.4495 a2         1 CLA      0.023900
     60 C17        81.8282   58.0182   43.8961 a2         1 CLA     -0.105700
     61 C18        82.5349   59.3001   44.4268 a1         1 CLA      0.206800
     62 C19        81.7843   59.7837   45.6983 a3         1 CLA     -0.280100
     63 C20        84.1221   59.3118   44.5569 a3         1 CLA     -0.280100
     64 NC         73.8253   58.3387   39.2392 nx         1 CLA     -0.309200
     65 MG         75.2219   58.1964   37.6501 mg         1 CLA      0.895000
     66 HMD3       70.6215   54.5489   37.5149 dc         1 CLA      0.064300
     67 HMD2       69.9806   55.3858   36.0468 dc         1 CLA      0.064300
     68 HMD1       70.8086   53.7812   35.9461 dc         1 CLA      0.064300
     69 HMC3       73.4370   60.2670   42.9486 dc         1 CLA      0.052100
     70 HMC2       72.0107   59.5715   43.0389 dc         1 CLA      0.052100
     71 HMC1       73.5084   58.5703   43.5873 dc         1 CLA      0.052100
     72 HMB3       80.1536   61.7660   40.0212 dc         1 CLA      0.063600
     73 HMB2       80.7594   60.3142   39.2699 dc         1 CLA      0.063600
     74 HMB1       80.2628   61.5514   38.3304 dc         1 CLA      0.063600
     75 HMA3       80.6396   57.2793   36.3178 dc         1 CLA      0.058300
     76 HMA2       79.6043   55.8417   36.2765 dc         1 CLA      0.058300
     77 HMA1       80.6279   56.3557   34.8182 dc         1 CLA      0.058300
     78 HED3       77.8060   52.6594   34.9574 dc         1 CLA      0.079300
     79 HED2       76.8979   51.8465   36.1858 dc         1 CLA      0.079300
     80 HED1       76.6349   51.3226   34.4483 dc         1 CLA      0.079300
     81 HBC3       71.6983   55.7067   41.6387 dc         1 CLA      0.016300
     82 HBC2       70.0396   55.5910   42.1848 dc         1 CLA      0.016300
     83 HBC1       70.3366   55.5038   40.4699 dc         1 CLA      0.016300
     84 HBB2       79.3571   61.5810   43.4574 da         1 CLA      0.183000
     85 HBB1       80.0069   60.6385   41.9801 da         1 CLA      0.183000
     86 HBA2       78.6997   57.2803   30.9935 dc         1 CLA      0.029400
     87 HBA1       79.7900   57.3063   32.4259 dc         1 CLA      0.029400
     88 HAC2       70.7321   57.7836   42.4107 dc         1 CLA      0.029300
     89 HAC1       69.8795   57.7419   40.8901 dc         1 CLA      0.029300
     90 HAA2       76.7771   56.9412   32.4174 dc         1 CLA      0.028700
     91 HAA1       77.6581   58.2324   32.8599 dc         1 CLA      0.028700
     92 H203       84.3148   60.3542   44.7392 dc         1 CLA      0.065600
     93 H202       84.5232   58.6814   45.4050 dc         1 CLA      0.065600
     94 H201       84.5312   59.0265   43.6183 dc         1 CLA      0.065600
     95 H193       81.9350   59.1671   46.6209 dc         1 CLA      0.065600
     96 H192       81.9039   60.8412   46.0147 dc         1 CLA      0.065600
     97 H191       80.7157   59.7763   45.4796 dc         1 CLA      0.065600
     98 H172       80.7361   58.1395   44.0062 dc         1 CLA      0.027600
     99 H171       82.1779   57.2615   44.5971 dc         1 CLA      0.027600
    100 H162       83.1537   57.5958   42.2279 dc         1 CLA      0.002900
    101 H161       81.5253   58.2850   41.8266 dc         1 CLA      0.002900
    102 H152       80.4891   56.0602   42.6554 dc         1 CLA      0.029100
    103 H151       82.0903   55.5345   42.8188 dc         1 CLA      0.029100
    104 H143       80.6299   55.9348   38.8699 dc         1 CLA      0.063600
    105 H142       79.5698   56.3969   40.2088 dc         1 CLA      0.063600
    106 H141       80.9321   57.5347   39.7895 dc         1 CLA      0.063600
    107 H122       83.4476   54.5060   40.7681 dc         1 CLA      0.032500
    108 H121       83.5950   56.1028   39.9782 dc         1 CLA      0.032500
    109 H112       82.5773   55.4395   37.8720 dc         1 CLA      0.006600
    110 H111       82.2495   53.8496   38.6123 dc         1 CLA      0.006600
    111 H102       84.8454   53.4468   38.8338 dc         1 CLA      0.024100
    112 H101       84.9043   55.1785   38.4622 dc         1 CLA      0.024100
    113 HHD        71.0085   56.5010   38.7772 da         1 CLA      0.174300
    114 HHC        75.5677   59.9251   41.7151 da         1 CLA      0.136800
    115 HHB        79.5629   59.3909   37.1361 da         1 CLA      0.138300
    116 HBD        75.0633   55.4878   32.8789 dc         1 CLA      0.107700
    117 HAB        77.2050   61.7800   42.2474 da         1 CLA      0.155200
    118 H93        86.6460   52.7678   36.5549 dc         1 CLA      0.069500
    119 H92        86.2941   54.0439   35.3528 dc         1 CLA      0.069500
    120 H91        86.7400   54.5305   36.9643 dc         1 CLA      0.069500
    121 H8         84.2481   54.7696   36.2467 dc         1 CLA      0.029300
    122 H72        82.8728   52.7558   36.4589 dc         1 CLA      0.044400
    123 H71        84.4082   51.6863   36.3702 dc         1 CLA      0.044400
    124 H62        84.8694   52.6433   34.2191 dc         1 CLA      0.015600
    125 H61        83.6344   53.7014   34.2234 dc         1 CLA      0.015600
    126 H52        83.2536   50.6420   34.2687 dc         1 CLA      0.033200
    127 H51        83.1718   51.8411   32.8875 dc         1 CLA      0.033200
    128 H43        81.0910   50.4379   35.6361 dc         1 CLA      0.037000
    129 H42        79.5723   51.0202   34.8304 dc         1 CLA      0.037000
    130 H41        80.6416   49.8659   33.9763 dc         1 CLA      0.037000
    131 H3A        79.1977   58.4094   34.5132 dc         1 CLA      0.041100
    132 H2A        78.1226   55.7881   34.3750 dc         1 CLA      0.083100
    133 H2         80.6224   53.7924   34.6633 da         1 CLA      0.180900
    134 H18        82.3369   60.1400   43.6706 dc         1 CLA     -0.003900
    135 H13        81.1860   54.5519   40.7870 dc         1 CLA      0.019700
    136 H12        79.3858   52.6827   32.2843 dc         1 CLA      0.120400
    137 H11        80.9690   53.2321   31.6680 dc         1 CLA      0.120400
    138 C1         67.6902   60.1830   48.4065 Z1         2 LUT      0.509236
    139 C2         66.3488   59.9577   49.1766 Z2         2 LUT     -0.434695
    140 C3         65.7323   61.2053   49.7657 Z3         2 LUT      0.437453
    141 O3         66.1530   61.4602   51.0826 S1         2 LUT     -0.547129
    142 C4         66.1514   62.4984   49.0480 Z4         2 LUT     -0.468603
    143 C5         66.6833   62.3405   47.6553 Z5         2 LUT      0.279246
    144 C6         67.4802   61.3073   47.3776 Z6         2 LUT     -0.305473
    145 C7         67.7261   60.9993   45.9311 Z7         2 LUT      0.069402
    146 C8         68.7202   61.5566   45.2508 Z8         2 LUT     -0.191631
    147 C9         69.2061   61.0488   43.9871 Z9         2 LUT      0.196698
    148 C10        70.1949   61.8211   43.4233 Y1         2 LUT     -0.208611
    149 C11        70.9892   61.7197   42.2034 Y2         2 LUT      0.030784
    150 C12        72.1080   62.4220   41.8278 Y3         2 LUT     -0.220316
    151 C13        72.9641   62.2688   40.7662 Y4         2 LUT      0.215937
    152 C14        74.0857   63.0436   40.7982 Y5         2 LUT     -0.185793
    153 C15        75.2940   62.9570   40.0099 Y6         2 LUT     -0.057835
    154 C16        68.1594   58.7756   47.8435 Y7         2 LUT     -0.405615
    155 C17        68.7106   60.4374   49.4868 Y7         2 LUT     -0.405615
    156 C18        66.0701   63.3180   46.6661 Y9         2 LUT     -0.369639
    157 C19        68.8512   59.6459   43.4179 W1         2 LUT     -0.333362
    158 C20        72.4183   61.6703   39.5354 W2         2 LUT     -0.323439
    159 C21        86.6350   63.9771   33.5050 Z1         2 LUT      0.406104
    160 C22        87.3239   63.4609   32.2373 Z2         2 LUT     -0.404965
    161 C23        87.5526   64.5167   31.1075 Z3         2 LUT      0.391255
    162 O23        87.9209   63.7616   29.9030 S1         2 LUT     -0.528210
    163 C24        86.3431   65.4280   31.0483 W6         2 LUT     -0.258361
    164 C25        85.2217   65.4823   31.8434 Z5         2 LUT      0.133546
    165 C26        85.2442   64.5930   33.1453 W8         2 LUT     -0.147008
    166 C27        84.5197   65.2738   34.2720 Z7         2 LUT      0.023843
    167 C28        83.3278   64.8284   34.7877 Z8         2 LUT     -0.216987
    168 C29        82.5712   65.4056   35.9474 Z9         2 LUT      0.206524
    169 C30        81.5648   64.6067   36.5353 Y1         2 LUT     -0.215556
    170 C31        80.8217   64.8894   37.7355 Y2         2 LUT      0.025142
    171 C32        79.5807   64.2721   38.0877 Y3         2 LUT     -0.212209
    172 C33        78.7530   64.4701   39.2463 Y4         2 LUT      0.240937
    173 C34        77.5092   63.8367   39.2907 Y5         2 LUT     -0.218862
    174 C35        76.3624   63.8162   40.1680 Y6         2 LUT     -0.023547
    175 C36        87.7404   64.9719   34.0850 Y7         2 LUT     -0.393485
    176 C37        86.5283   62.7434   34.4027 Y7         2 LUT     -0.393485
    177 C38        84.0670   66.3292   31.4695 Y9         2 LUT     -0.387526
    178 C39        83.0131   66.8395   36.2779 W1         2 LUT     -0.322618
    179 C40        79.1115   65.3358   40.4584 W2         2 LUT     -0.358472
    180 H403       79.2873   64.6863   41.3405 R7         2 LUT      0.097720
    181 H402       79.9703   65.9260   40.3332 R7         2 LUT      0.097720
    182 H401       78.3163   65.9789   40.7238 R7         2 LUT      0.097720
    183 H393       83.7180   66.7873   37.0623 R4         2 LUT      0.082505
    184 H392       83.4266   67.3659   35.4611 R4         2 LUT      0.082505
    185 H391       82.2800   67.5789   36.6975 R4         2 LUT      0.082505
    186 H383       84.3402   67.0719   30.6774 R1         2 LUT      0.104030
    187 H382       83.3602   65.6571   31.1397 R1         2 LUT      0.104030
    188 H381       83.5400   66.9409   32.3009 R1         2 LUT      0.104030
    189 H373       85.9106   62.0271   33.8123 T4         2 LUT      0.089537
    190 H372       87.5106   62.3107   34.6048 T4         2 LUT      0.089537
    191 H371       86.0261   63.0859   35.3914 T4         2 LUT      0.089537
    192 H363       88.7322   64.5218   34.1036 T4         2 LUT      0.089537
    193 H362       87.8154   65.9082   33.5394 T4         2 LUT      0.089537
    194 H361       87.4728   65.1766   35.1341 T4         2 LUT      0.089537
    195 H222       88.2829   62.9904   32.4810 U2         2 LUT      0.127376
    196 H221       86.6425   62.7139   31.8635 U2         2 LUT      0.127376
    197 H203       71.7500   62.3869   39.0017 R7         2 LUT      0.087068
    198 H202       73.1444   61.5068   38.7113 R7         2 LUT      0.087068
    199 H201       71.9583   60.6697   39.6963 R7         2 LUT      0.087068
    200 H193       69.2614   58.9058   44.0841 R4         2 LUT      0.089716
    201 H192       67.7195   59.5938   43.3388 R4         2 LUT      0.089716
    202 H191       69.3197   59.4404   42.4045 R4         2 LUT      0.089716
    203 H183       66.1946   63.0326   45.6012 R1         2 LUT      0.094572
    204 H182       65.0075   63.2956   46.9917 R1         2 LUT      0.094572
    205 H181       66.4458   64.3028   46.8659 R1         2 LUT      0.094572
    206 H173       69.6876   60.7548   49.1144 T4         2 LUT      0.093752
    207 H172       68.3493   61.2238   50.2005 T4         2 LUT      0.093752
    208 H171       68.9256   59.5406   50.0737 T4         2 LUT      0.093752
    209 H163       68.3890   57.9263   48.5115 T4         2 LUT      0.093752
    210 H162       67.3851   58.4089   47.1846 T4         2 LUT      0.093752
    211 H161       69.1027   59.0804   47.3042 T4         2 LUT      0.093752
    212 HO3        65.6262   61.0132   51.8206 Q1         2 LUT      0.300121
    213 H8         69.2812   62.3566   45.7162 U7         2 LUT      0.080784
    214 H7         67.3439   60.0286   45.6374 U6         2 LUT      0.042190
    215 H42        65.2388   63.0857   49.0981 U5         2 LUT      0.145166
    216 H41        66.8399   63.0943   49.6464 U5         2 LUT      0.145166
    217 H35        76.2482   64.5456   40.9574 T3         2 LUT      0.077919
    218 H34        77.3529   63.2022   38.4478 T2         2 LUT      0.073626
    219 H32        79.1929   63.5629   37.3349 T1         2 LUT      0.092510
    220 H31        81.1694   65.6224   38.4925 U9         2 LUT      0.070048
    221 H30        81.5340   63.6784   35.9725 U8         2 LUT      0.085442
    222 H3         64.6807   61.2730   49.6179 U3         2 LUT     -0.031596
    223 H28        82.9157   63.8059   34.4679 U7         2 LUT      0.084728
    224 H27        85.0219   66.1024   34.6907 U6         2 LUT      0.087291
    225 H26        84.6226   63.8654   32.7035 Q6         2 LUT      0.075325
    226 H24        86.3175   66.1036   30.2084 Q5         2 LUT      0.094482
    227 H23        88.4540   65.0587   31.4786 U3         2 LUT     -0.024869
    228 H22        65.7506   59.6045   48.3887 U2         2 LUT      0.127376
    229 H21        66.3861   59.0110   49.7347 U2         2 LUT      0.127376
    230 H15        75.3502   62.1651   39.2908 T3         2 LUT      0.093200
    231 H14        74.1172   63.9339   41.5365 T2         2 LUT      0.068865
    232 H12        72.3743   63.1447   42.5941 T1         2 LUT      0.095507
    233 H11        70.5784   60.9454   41.6434 U9         2 LUT      0.068930
    234 H10        70.4554   62.6856   43.9880 U8         2 LUT      0.083911
    235 H1         87.1999   63.6656   29.3290 Q1         2 LUT      0.297311
@<TRIPOS>BOND
    1     6     1 1
    2     7     2 1
    3     8     3 1
    4     9     4 1
    5    11     4 1
    6    12     6 1
    7    13     9 1
    8    16     9 1
    9    25     5 1
   10    25    16 1
   11    26    10 1
   12    26    17 1
   13    27    18 1
   14    28    14 1
   15    28    19 1
   16    29    12 1
   17    30    13 1
   18    31    24 1
   19    32     1 1
   20    32    25 1
   21    33    21 1
   22    33    26 1
   23    34    22 1
   24    34    27 1
   25    35    23 1
   26    35    28 1
   27    36    12 1
   28    36    24 1
   29    37    13 1
   30    37    15 1
   31    38    31 1
   32    39    20 1
   33    39    32 1
   34    40     2 1
   35    40    33 1
   36    41     3 1
   37    41    34 1
   38    42     4 1
   39    42    35 1
   40    43    38 1
   41    44     5 1
   42    44    17 1
   43    44    39 1
   44    45    10 1
   45    45    18 1
   46    45    40 1
   47    46    19 1
   48    46    41 1
   49    47    14 1
   50    47    16 1
   51    47    42 1
   52    48    38 1
   53    49    48 1
   54    50    49 1
   55    51    50 1
   56    52    51 1
   57    53    51 1
   58    54    53 1
   59    55    54 1
   60    56    55 1
   61    57    56 1
   62    58    56 1
   63    59    58 1
   64    60    59 1
   65    61    60 1
   66    62    61 1
   67    63    61 1
   68    64    27 1
   69    64    46 1
   70    65     5 1
   71    65    10 1
   72    65    64 1
   73    65    14 1
   74    66    23 1
   75    67    23 1
   76    68    23 1
   77    69    22 1
   78    70    22 1
   79    71    22 1
   80    72    21 1
   81    73    21 1
   82    74    21 1
   83    75    20 1
   84    76    20 1
   85    77    20 1
   86    78    15 1
   87    79    15 1
   88    80    15 1
   89    81     8 1
   90    82     8 1
   91    83     8 1
   92    84     7 1
   93    85     7 1
   94    86     6 1
   95    87     6 1
   96    88     3 1
   97    89     3 1
   98    90     1 1
   99    91     1 1
  100    92    63 1
  101    93    63 1
  102    94    63 1
  103    95    62 1
  104    96    62 1
  105    97    62 1
  106    98    60 1
  107    99    60 1
  108   100    59 1
  109   101    59 1
  110   102    58 1
  111   103    58 1
  112   104    57 1
  113   105    57 1
  114   106    57 1
  115   107    55 1
  116   108    55 1
  117   109    54 1
  118   110    54 1
  119   111    53 1
  120   112    53 1
  121   113    19 1
  122   114    18 1
  123   115    17 1
  124   116     9 1
  125   117     2 1
  126   118    52 1
  127   119    52 1
  128   120    52 1
  129   121    51 1
  130   122    50 1
  131   123    50 1
  132   124    49 1
  133   125    49 1
  134   126    48 1
  135   127    48 1
  136   128    43 1
  137   129    43 1
  138   130    43 1
  139   131    39 1
  140   132    32 1
  141   133    31 1
  142   134    61 1
  143   135    56 1
  144   136    24 1
  145   137    24 1
  146   139   138 1
  147   140   139 1
  148   141   140 1
  149   142   140 1
  150   143   142 1
  151   144   138 1
  152   144   143 1
  153   145   144 1
  154   146   145 1
  155   147   146 1
  156   148   147 1
  157   149   148 1
  158   150   149 1
  159   151   150 1
  160   152   151 1
  161   153   152 1
  162   154   138 1
  163   155   138 1
  164   156   143 1
  165   157   147 1
  166   158   151 1
  167   160   159 1
  168   161   160 1
  169   162   161 1
  170   163   161 1
  171   164   163 1
  172   165   159 1
  173   165   164 1
  174   166   165 1
  175   167   166 1
  176   168   167 1
  177   169   168 1
  178   170   169 1
  179   171   170 1
  180   172   171 1
  181   173   172 1
  182   174   153 1
  183   174   173 1
  184   175   159 1
  185   176   159 1
  186   177   164 1
  187   178   168 1
  188   179   172 1
  189   180   179 1
  190   181   179 1
  191   182   179 1
  192   183   178 1
  193   184   178 1
  194   185   178 1
  195   186   177 1
  196   187   177 1
  197   188   177 1
  198   189   176 1
  199   190   176 1
  200   191   176 1
  201   192   175 1
  202   193   175 1
  203   194   175 1
  204   195   160 1
  205   196   160 1
  206   197   158 1
  207   198   158 1
  208   199   158 1
  209   200   157 1
  210   201   157 1
  211   202   157 1
  212   203   156 1
  213   204   156 1
  214   205   156 1
  215   206   155 1
  216   207   155 1
  217   208   155 1
  218   209   154 1
  219   210   154 1
  220   211   154 1
  221   212   141 1
  222   213   146 1
  223   214   145 1
  224   215   142 1
  225   216   142 1
  226   217   174 1
  227   218   173 1
  228   219   171 1
  229   220   170 1
  230   221   169 1
  231   222   140 1
  232   223   167 1
  233   224   166 1
  234   225   165 1
  235   226   163 1
  236   227   161 1
  237   228   139 1
  238   229   139 1
  239   230   153 1
  240   231   152 1
  241   232   150 1
  242   233   149 1
  243   234   148 1
  244   235   162 1
  245   65    153 1
  246   65    174 1
@<TRIPOS>SUBSTRUCTURE
      1 CLA               1 ****               0 ****  **** 
      2 LUT             138 ****               0 ****  **** 
