@<TRIPOS>MOLECULE
Cpptraj generated mol2 file.
  235   246     2     0     0
SMALL
USER_CHARGES


@<TRIPOS>ATOM
      1 CAA        78.7016   57.1150   34.6201 a2         1 CLA     -0.055900
      2 CAB        78.5701   61.4702   43.4662 c8         1 CLA     -0.148500
      3 CAC        71.8541   57.1663   43.1563 a2         1 CLA     -0.012600
      4 CAD        74.6863   54.6016   36.0020 ck         1 CLA      0.398800
      5 NA         77.8399   57.7072   38.0351 ns         1 CLA     -0.225500
      6 CBA        79.9734   56.9166   33.7249 a2         1 CLA     -0.135000
      7 CBB        79.6313   61.3151   44.2834 c0         1 CLA     -0.395200
      8 CBC        71.7406   55.6412   43.3066 a3         1 CLA     -0.037700
      9 CBD        76.1108   55.0556   35.6243 a1         1 CLA     -0.053900
     10 NB         77.5997   59.3658   40.5803 nm         1 CLA     -0.295700
     11 OBD        74.0460   53.7811   35.3035 o2         1 CLA     -0.494600
     12 CGA        80.7043   55.5873   33.5527 c4         1 CLA      0.827000
     13 CGD        77.0892   54.0374   35.2068 c4         1 CLA      0.655300
     14 ND         75.0649   56.8031   38.7584 nm         1 CLA     -0.291600
     15 CED        77.8572   51.7996   35.4664 a3         1 CLA      0.005400
     16 CHA        76.5002   56.0841   36.7391 cs         1 CLA     -0.123800
     17 CHB        79.4408   59.2528   38.9116 aa         1 CLA     -0.291900
     18 CHC        76.2755   59.6157   42.7139 aa         1 CLA     -0.090400
     19 CHD        73.1639   56.7449   40.2785 aa         1 CLA     -0.052000
     20 CMA        81.2330   57.5393   37.0096 a3         1 CLA     -0.230700
     21 CMB        80.8629   61.0910   41.1763 a3         1 CLA     -0.180800
     22 CMC        73.9602   58.9644   44.7435 a3         1 CLA     -0.134000
     23 CMD        71.8559   54.6724   38.2534 a3         1 CLA     -0.141100
     24 C1         82.4375   54.1459   34.6514 a2         1 CLA      0.023000
     25 C1A        77.6752   56.8683   36.9192 ac         1 CLA     -0.015100
     26 C1B        78.8395   59.7468   40.0941 cr         1 CLA      0.054700
     27 C1C        75.1812   58.7865   42.3955 cn         1 CLA     -0.005600
     28 C1D        73.7981   56.3764   39.1057 ap         1 CLA     -0.047300
     29 O1A        80.4280   54.7204   32.7729 o2         1 CLA     -0.610800
     30 O1D        77.8891   54.1887   34.2825 o2         1 CLA     -0.558200
     31 C2         81.7678   53.3306   35.7408 c8         1 CLA     -0.325100
     32 C2A        78.9855   56.9021   36.0849 a1         1 CLA      0.098600
     33 C2B        79.5025   60.5535   41.1577 cb         1 CLA      0.088500
     34 C2C        74.1060   58.4278   43.3120 cb         1 CLA      0.053700
     35 C2D        73.1770   55.3974   38.1455 cb         1 CLA      0.058900
     36 O2A        81.7103   55.4353   34.5150 o1         1 CLA     -0.437200
     37 O2D        77.1025   52.9180   36.0544 o1         1 CLA     -0.357600
     38 C3         82.2435   52.7247   36.7931 c5         1 CLA      0.031200
     39 C3A        79.8027   57.9441   36.7442 a1         1 CLA      0.166800
     40 C3B        78.5243   60.7413   42.1687 cb         1 CLA      0.035000
     41 C3C        73.1833   57.6609   42.5920 cb         1 CLA     -0.089900
     42 C3D        74.3031   55.2244   37.2407 cb         1 CLA     -0.035900
     43 C4         82.8230   51.2694   36.7144 a3         1 CLA     -0.053300
     44 C4A        79.0243   58.2782   38.0169 ac         1 CLA      0.001800
     45 C4B        77.3856   59.8566   41.8815 cn         1 CLA     -0.020900
     46 C4C        73.7198   57.4466   41.2872 cr         1 CLA     -0.044400
     47 C4D        75.4247   56.0785   37.6578 c6         1 CLA     -0.046000
     48 C5         82.6544   53.4591   38.0552 a2         1 CLA     -0.070400
     49 C6         83.8290   54.3814   38.0296 a2         1 CLA      0.043900
     50 C7         83.9578   55.2076   39.3113 a2         1 CLA     -0.150000
     51 C8         84.8610   56.4364   39.2561 a1         1 CLA      0.064200
     52 C9         86.2258   56.1221   38.5188 a3         1 CLA     -0.259300
     53 C10        84.9451   57.0854   40.6422 a2         1 CLA     -0.071900
     54 C11        83.5924   57.5916   41.2281 a2         1 CLA      0.014500
     55 C12        83.5613   58.5380   42.4155 a2         1 CLA     -0.112100
     56 C13        84.3773   58.1427   43.6546 a1         1 CLA      0.089200
     57 C14        83.6576   57.0312   44.4317 a3         1 CLA     -0.239100
     58 C15        84.7667   59.2970   44.6210 a2         1 CLA     -0.102200
     59 C16        83.6069   59.9145   45.4167 a2         1 CLA      0.023900
     60 C17        84.0371   61.1553   46.3138 a2         1 CLA     -0.105700
     61 C18        82.8587   61.6665   47.2160 a1         1 CLA      0.206800
     62 C19        82.6045   60.7689   48.3960 a3         1 CLA     -0.280100
     63 C20        83.1268   63.1098   47.6406 a3         1 CLA     -0.280100
     64 NC         74.9980   58.0649   41.2514 nx         1 CLA     -0.309200
     65 MG         76.3085   58.0160   39.5727 mg         1 CLA      0.895000
     66 HMD3       71.8107   53.7070   37.7617 dc         1 CLA      0.064300
     67 HMD2       71.5723   54.5266   39.2916 dc         1 CLA      0.064300
     68 HMD1       71.0914   55.3239   37.9433 dc         1 CLA      0.064300
     69 HMC3       74.0331   58.1563   45.3898 dc         1 CLA      0.052100
     70 HMC2       74.7642   59.7007   45.0973 dc         1 CLA      0.052100
     71 HMC1       72.9698   59.5031   44.9304 dc         1 CLA      0.052100
     72 HMB3       80.9469   62.0369   41.6556 dc         1 CLA      0.063600
     73 HMB2       81.5934   60.3606   41.5413 dc         1 CLA      0.063600
     74 HMB1       81.2099   61.3999   40.1766 dc         1 CLA      0.063600
     75 HMA3       81.1290   56.6305   37.5665 dc         1 CLA      0.058300
     76 HMA2       81.9195   57.4104   36.1573 dc         1 CLA      0.058300
     77 HMA1       81.7482   58.3579   37.6674 dc         1 CLA      0.058300
     78 HED3       77.5055   51.6736   34.4535 dc         1 CLA      0.079300
     79 HED2       78.9606   51.9245   35.4977 dc         1 CLA      0.079300
     80 HED1       77.6589   50.9086   36.0865 dc         1 CLA      0.079300
     81 HBC3       70.9272   55.4625   43.9804 dc         1 CLA      0.016300
     82 HBC2       71.3641   55.0823   42.4391 dc         1 CLA      0.016300
     83 HBC1       72.6295   55.2109   43.6919 dc         1 CLA      0.016300
     84 HBB2       79.6509   61.7520   45.3076 da         1 CLA      0.183000
     85 HBB1       80.5734   60.7722   44.1028 da         1 CLA      0.183000
     86 HBA2       79.7541   57.4122   32.8495 dc         1 CLA      0.029400
     87 HBA1       80.7673   57.6143   34.0787 dc         1 CLA      0.029400
     88 HAC2       71.9186   57.5776   44.1302 dc         1 CLA      0.029300
     89 HAC1       71.0396   57.6322   42.6537 dc         1 CLA      0.029300
     90 HAA2       77.9267   56.4573   34.2469 dc         1 CLA      0.028700
     91 HAA1       78.4181   58.1772   34.6354 dc         1 CLA      0.028700
     92 H203       84.1551   63.3786   47.9347 dc         1 CLA      0.065600
     93 H202       83.0591   63.6278   46.7118 dc         1 CLA      0.065600
     94 H201       82.4642   63.5136   48.3963 dc         1 CLA      0.065600
     95 H193       82.6722   59.7668   48.0145 dc         1 CLA      0.065600
     96 H192       83.4481   60.8762   49.1702 dc         1 CLA      0.065600
     97 H191       81.6876   60.8016   48.9300 dc         1 CLA      0.065600
     98 H172       84.9346   60.8887   46.8783 dc         1 CLA      0.027600
     99 H171       84.2297   62.0112   45.6291 dc         1 CLA      0.027600
    100 H162       82.8349   60.2883   44.7365 dc         1 CLA      0.002900
    101 H161       83.2412   59.1770   46.1557 dc         1 CLA      0.002900
    102 H152       85.3180   58.7695   45.3501 dc         1 CLA      0.029100
    103 H151       85.4277   59.9920   44.0945 dc         1 CLA      0.029100
    104 H143       84.2891   56.7479   45.2919 dc         1 CLA      0.063600
    105 H142       82.6124   57.3224   44.6608 dc         1 CLA      0.063600
    106 H141       83.6362   56.1899   43.7297 dc         1 CLA      0.063600
    107 H122       84.0365   59.4217   42.0269 dc         1 CLA      0.032500
    108 H121       82.5759   58.7219   42.8125 dc         1 CLA      0.032500
    109 H112       82.9732   58.0166   40.4225 dc         1 CLA      0.006600
    110 H111       83.0806   56.7300   41.4882 dc         1 CLA      0.006600
    111 H102       85.3832   56.3002   41.3695 dc         1 CLA      0.024100
    112 H101       85.6890   57.8751   40.5782 dc         1 CLA      0.024100
    113 HHD        72.1381   56.3329   40.5292 da         1 CLA      0.174300
    114 HHC        76.1931   60.2052   43.5894 da         1 CLA      0.136800
    115 HHB        80.3764   59.7657   38.6543 da         1 CLA      0.138300
    116 HBD        75.8401   55.6712   34.7760 dc         1 CLA      0.107700
    117 HAB        77.6633   61.9398   43.8620 da         1 CLA      0.155200
    118 H93        85.9790   55.9792   37.4512 dc         1 CLA      0.069500
    119 H92        86.9556   56.8647   38.4906 dc         1 CLA      0.069500
    120 H91        86.7490   55.2070   38.8910 dc         1 CLA      0.069500
    121 H8         84.3740   57.1595   38.5958 dc         1 CLA      0.029300
    122 H72        83.0353   55.4488   39.7726 dc         1 CLA      0.044400
    123 H71        84.5180   54.5948   40.0512 dc         1 CLA      0.044400
    124 H62        84.7695   53.7657   37.7956 dc         1 CLA      0.015600
    125 H61        83.7271   55.0813   37.2931 dc         1 CLA      0.015600
    126 H52        81.8076   54.0896   38.2982 dc         1 CLA      0.033200
    127 H51        82.7080   52.7232   38.8196 dc         1 CLA      0.033200
    128 H43        82.1928   50.5186   37.2232 dc         1 CLA      0.037000
    129 H42        82.9514   50.9615   35.7037 dc         1 CLA      0.037000
    130 H41        83.7678   51.1611   37.1584 dc         1 CLA      0.037000
    131 H3A        79.8069   58.8612   36.2089 dc         1 CLA      0.041100
    132 H2A        79.4177   55.9027   36.0742 dc         1 CLA      0.083100
    133 H2         80.6425   53.4237   35.8496 da         1 CLA      0.180900
    134 H18        82.0373   61.5063   46.5858 dc         1 CLA     -0.003900
    135 H13        85.3212   57.7307   43.3624 dc         1 CLA      0.019700
    136 H12        82.5989   53.5877   33.6657 dc         1 CLA      0.120400
    137 H11        83.4594   54.2157   34.9273 dc         1 CLA      0.120400
    138 C1         68.3945   61.0306   49.8988 Z1         2 LUT      0.509236
    139 C2         67.1196   60.7271   50.6598 Z2         2 LUT     -0.434695
    140 C3         66.1371   61.8599   50.9045 Z3         2 LUT      0.437453
    141 O3         66.4415   62.5203   52.1710 S1         2 LUT     -0.547129
    142 C4         66.1066   62.8619   49.7389 Z4         2 LUT     -0.468603
    143 C5         66.9469   62.6001   48.5482 Z5         2 LUT      0.279246
    144 C6         68.0096   61.7858   48.5927 Z6         2 LUT     -0.305473
    145 C7         68.4863   61.2605   47.3256 Z7         2 LUT      0.069402
    146 C8         69.5818   61.6689   46.6323 Z8         2 LUT     -0.191631
    147 C9         70.0358   61.1879   45.2644 Z9         2 LUT      0.196698
    148 C10        70.9991   61.8933   44.6076 Y1         2 LUT     -0.208611
    149 C11        71.7122   61.7498   43.3522 Y2         2 LUT      0.030784
    150 C12        72.7336   62.6008   42.9973 Y3         2 LUT     -0.220316
    151 C13        73.6210   62.4260   41.8795 Y4         2 LUT      0.215937
    152 C14        74.7343   63.2328   41.8006 Y5         2 LUT     -0.185793
    153 C15        75.8379   63.2055   40.9181 Y6         2 LUT     -0.057835
    154 C16        69.1361   59.6630   49.7242 Y7         2 LUT     -0.405615
    155 C17        69.2618   62.0192   50.7302 Y7         2 LUT     -0.405615
    156 C18        66.4961   63.4082   47.3574 Y9         2 LUT     -0.369639
    157 C19        69.5307   59.7891   44.8196 W1         2 LUT     -0.333362
    158 C20        73.3626   61.4599   40.7458 W2         2 LUT     -0.323439
    159 C21        87.9818   64.0377   35.5391 Z1         2 LUT      0.406104
    160 C22        88.7348   63.6606   34.2931 Z2         2 LUT     -0.404965
    161 C23        88.8837   64.6276   33.1707 Z3         2 LUT      0.391255
    162 O23        89.6420   63.9904   32.1020 S1         2 LUT     -0.528210
    163 C24        87.5178   65.3439   32.8977 W6         2 LUT     -0.258361
    164 C25        86.4708   65.3576   33.7818 Z5         2 LUT      0.133546
    165 C26        86.5377   64.4309   35.0613 W8         2 LUT     -0.147008
    166 C27        85.6829   65.0244   36.2121 Z7         2 LUT      0.023843
    167 C28        84.5270   64.5120   36.7633 Z8         2 LUT     -0.216987
    168 C29        83.6280   65.1486   37.7264 Z9         2 LUT      0.206524
    169 C30        82.4399   64.5237   38.0526 Y1         2 LUT     -0.215556
    170 C31        81.4241   64.8656   39.0013 Y2         2 LUT      0.025142
    171 C32        80.3234   64.2277   39.3366 Y3         2 LUT     -0.212209
    172 C33        79.3525   64.6175   40.2752 Y4         2 LUT      0.240937
    173 C34        78.1834   63.8075   40.3213 Y5         2 LUT     -0.218862
    174 C35        76.9902   63.9719   41.0429 Y6         2 LUT     -0.023547
    175 C36        88.7980   65.1085   36.2688 Y7         2 LUT     -0.393485
    176 C37        88.0128   62.7462   36.3979 Y7         2 LUT     -0.393485
    177 C38        85.2194   66.1774   33.4946 Y9         2 LUT     -0.387526
    178 C39        83.9738   66.5801   38.0927 W1         2 LUT     -0.322618
    179 C40        79.6256   65.7228   41.2369 W2         2 LUT     -0.358472
    180 H403       78.9334   65.7123   42.0666 R7         2 LUT      0.097720
    181 H402       80.6918   65.8108   41.5523 R7         2 LUT      0.097720
    182 H401       79.5353   66.7033   40.7886 R7         2 LUT      0.097720
    183 H393       83.2307   67.2021   38.6493 R4         2 LUT      0.082505
    184 H392       84.8068   66.6576   38.8187 R4         2 LUT      0.082505
    185 H391       84.2349   67.1222   37.2137 R4         2 LUT      0.082505
    186 H383       84.2211   65.7704   33.6378 R1         2 LUT      0.104030
    187 H382       85.2933   66.8256   34.3381 R1         2 LUT      0.104030
    188 H381       85.4610   66.8257   32.6510 R1         2 LUT      0.104030
    189 H373       89.0722   62.3901   36.5763 T4         2 LUT      0.089537
    190 H372       87.5932   62.8036   37.3838 T4         2 LUT      0.089537
    191 H371       87.5902   61.8742   35.8260 T4         2 LUT      0.089537
    192 H363       89.8527   64.8629   36.4827 T4         2 LUT      0.089537
    193 H362       88.7169   66.0730   35.7145 T4         2 LUT      0.089537
    194 H361       88.2841   65.3708   37.1818 T4         2 LUT      0.089537
    195 H222       89.7906   63.3948   34.6294 U2         2 LUT      0.127376
    196 H221       88.1059   62.9177   33.6532 U2         2 LUT      0.127376
    197 H203       72.3448   61.2038   40.7889 R7         2 LUT      0.087068
    198 H202       73.5849   61.8136   39.7167 R7         2 LUT      0.087068
    199 H201       73.9726   60.5661   40.8413 R7         2 LUT      0.087068
    200 H193       68.4268   59.9008   44.6889 R4         2 LUT      0.089716
    201 H192       69.9413   59.5049   43.8959 R4         2 LUT      0.089716
    202 H191       69.8541   58.8639   45.4445 R4         2 LUT      0.089716
    203 H183       66.7631   64.4270   47.4846 R1         2 LUT      0.094572
    204 H182       66.9768   63.1236   46.3958 R1         2 LUT      0.094572
    205 H181       65.3414   63.3272   47.2814 R1         2 LUT      0.094572
    206 H173       68.8896   63.0198   50.6554 T4         2 LUT      0.093752
    207 H172       69.1820   61.8457   51.8414 T4         2 LUT      0.093752
    208 H171       70.2968   62.1136   50.3558 T4         2 LUT      0.093752
    209 H163       69.4772   59.3051   50.6703 T4         2 LUT      0.093752
    210 H162       68.6820   58.8292   49.2922 T4         2 LUT      0.093752
    211 H161       70.0566   59.7574   49.1155 T4         2 LUT      0.093752
    212 HO3        66.2810   61.8659   52.8168 Q1         2 LUT      0.300121
    213 H8         70.1122   62.5333   47.0012 U7         2 LUT      0.080784
    214 H7         67.8959   60.5205   46.7265 U6         2 LUT      0.042190
    215 H42        65.0831   62.8870   49.3019 U5         2 LUT      0.145166
    216 H41        66.3510   63.9022   49.9988 U5         2 LUT      0.145166
    217 H35        76.9945   64.5754   41.9146 T3         2 LUT      0.077919
    218 H34        78.1117   62.8689   39.6902 T2         2 LUT      0.073626
    219 H32        80.0830   63.3656   38.7243 T1         2 LUT      0.092510
    220 H31        81.5937   65.8100   39.6179 U9         2 LUT      0.070048
    221 H30        82.2426   63.5744   37.5725 U8         2 LUT      0.085442
    222 H3         65.1685   61.3464   51.0732 U3         2 LUT     -0.031596
    223 H28        84.1428   63.6501   36.2112 U7         2 LUT      0.084728
    224 H27        86.0573   66.0099   36.4446 U6         2 LUT      0.087291
    225 H26        86.0162   63.4229   34.8885 Q6         2 LUT      0.075325
    226 H24        87.5886   66.0460   32.0864 Q5         2 LUT      0.094482
    227 H23        89.5868   65.3928   33.5331 U3         2 LUT     -0.024869
    228 H22        66.5686   60.0239   49.9178 U2         2 LUT      0.127376
    229 H21        67.4668   60.0957   51.5180 U2         2 LUT      0.127376
    230 H15        75.8673   62.4750   40.1457 T3         2 LUT      0.093200
    231 H14        74.7114   64.0018   42.5806 T2         2 LUT      0.068865
    232 H12        72.8447   63.4205   43.6999 T1         2 LUT      0.095507
    233 H11        71.4876   60.8094   42.7904 U9         2 LUT      0.068930
    234 H10        71.4377   62.6936   45.1655 U8         2 LUT      0.083911
    235 H1         89.1430   63.5904   31.3659 Q1         2 LUT      0.297311
@<TRIPOS>BOND
    1     6     1 1
    2     7     2 1
    3     8     3 1
    4     9     4 1
    5    11     4 1
    6    12     6 1
    7    13     9 1
    8    16     9 1
    9    25     5 1
   10    25    16 1
   11    26    10 1
   12    26    17 1
   13    27    18 1
   14    28    14 1
   15    28    19 1
   16    29    12 1
   17    30    13 1
   18    31    24 1
   19    32     1 1
   20    32    25 1
   21    33    21 1
   22    33    26 1
   23    34    22 1
   24    34    27 1
   25    35    23 1
   26    35    28 1
   27    36    12 1
   28    36    24 1
   29    37    13 1
   30    37    15 1
   31    38    31 1
   32    39    20 1
   33    39    32 1
   34    40     2 1
   35    40    33 1
   36    41     3 1
   37    41    34 1
   38    42     4 1
   39    42    35 1
   40    43    38 1
   41    44     5 1
   42    44    17 1
   43    44    39 1
   44    45    10 1
   45    45    18 1
   46    45    40 1
   47    46    19 1
   48    46    41 1
   49    47    14 1
   50    47    16 1
   51    47    42 1
   52    48    38 1
   53    49    48 1
   54    50    49 1
   55    51    50 1
   56    52    51 1
   57    53    51 1
   58    54    53 1
   59    55    54 1
   60    56    55 1
   61    57    56 1
   62    58    56 1
   63    59    58 1
   64    60    59 1
   65    61    60 1
   66    62    61 1
   67    63    61 1
   68    64    27 1
   69    64    46 1
   70    65     5 1
   71    65    10 1
   72    65    64 1
   73    65    14 1
   74    66    23 1
   75    67    23 1
   76    68    23 1
   77    69    22 1
   78    70    22 1
   79    71    22 1
   80    72    21 1
   81    73    21 1
   82    74    21 1
   83    75    20 1
   84    76    20 1
   85    77    20 1
   86    78    15 1
   87    79    15 1
   88    80    15 1
   89    81     8 1
   90    82     8 1
   91    83     8 1
   92    84     7 1
   93    85     7 1
   94    86     6 1
   95    87     6 1
   96    88     3 1
   97    89     3 1
   98    90     1 1
   99    91     1 1
  100    92    63 1
  101    93    63 1
  102    94    63 1
  103    95    62 1
  104    96    62 1
  105    97    62 1
  106    98    60 1
  107    99    60 1
  108   100    59 1
  109   101    59 1
  110   102    58 1
  111   103    58 1
  112   104    57 1
  113   105    57 1
  114   106    57 1
  115   107    55 1
  116   108    55 1
  117   109    54 1
  118   110    54 1
  119   111    53 1
  120   112    53 1
  121   113    19 1
  122   114    18 1
  123   115    17 1
  124   116     9 1
  125   117     2 1
  126   118    52 1
  127   119    52 1
  128   120    52 1
  129   121    51 1
  130   122    50 1
  131   123    50 1
  132   124    49 1
  133   125    49 1
  134   126    48 1
  135   127    48 1
  136   128    43 1
  137   129    43 1
  138   130    43 1
  139   131    39 1
  140   132    32 1
  141   133    31 1
  142   134    61 1
  143   135    56 1
  144   136    24 1
  145   137    24 1
  146   139   138 1
  147   140   139 1
  148   141   140 1
  149   142   140 1
  150   143   142 1
  151   144   138 1
  152   144   143 1
  153   145   144 1
  154   146   145 1
  155   147   146 1
  156   148   147 1
  157   149   148 1
  158   150   149 1
  159   151   150 1
  160   152   151 1
  161   153   152 1
  162   154   138 1
  163   155   138 1
  164   156   143 1
  165   157   147 1
  166   158   151 1
  167   160   159 1
  168   161   160 1
  169   162   161 1
  170   163   161 1
  171   164   163 1
  172   165   159 1
  173   165   164 1
  174   166   165 1
  175   167   166 1
  176   168   167 1
  177   169   168 1
  178   170   169 1
  179   171   170 1
  180   172   171 1
  181   173   172 1
  182   174   153 1
  183   174   173 1
  184   175   159 1
  185   176   159 1
  186   177   164 1
  187   178   168 1
  188   179   172 1
  189   180   179 1
  190   181   179 1
  191   182   179 1
  192   183   178 1
  193   184   178 1
  194   185   178 1
  195   186   177 1
  196   187   177 1
  197   188   177 1
  198   189   176 1
  199   190   176 1
  200   191   176 1
  201   192   175 1
  202   193   175 1
  203   194   175 1
  204   195   160 1
  205   196   160 1
  206   197   158 1
  207   198   158 1
  208   199   158 1
  209   200   157 1
  210   201   157 1
  211   202   157 1
  212   203   156 1
  213   204   156 1
  214   205   156 1
  215   206   155 1
  216   207   155 1
  217   208   155 1
  218   209   154 1
  219   210   154 1
  220   211   154 1
  221   212   141 1
  222   213   146 1
  223   214   145 1
  224   215   142 1
  225   216   142 1
  226   217   174 1
  227   218   173 1
  228   219   171 1
  229   220   170 1
  230   221   169 1
  231   222   140 1
  232   223   167 1
  233   224   166 1
  234   225   165 1
  235   226   163 1
  236   227   161 1
  237   228   139 1
  238   229   139 1
  239   230   153 1
  240   231   152 1
  241   232   150 1
  242   233   149 1
  243   234   148 1
  244   235   162 1
  245   65    153 1
  246   65    174 1
@<TRIPOS>SUBSTRUCTURE
      1 CLA               1 ****               0 ****  **** 
      2 LUT             138 ****               0 ****  **** 
