@<TRIPOS>MOLECULE
Cpptraj generated mol2 file.
  235   246     2     0     0
SMALL
USER_CHARGES


@<TRIPOS>ATOM
      1 CAA        79.4575   59.3022   34.3202 a2         1 CLA     -0.055900
      2 CAB        78.4778   62.4042   43.5283 c8         1 CLA     -0.148500
      3 CAC        71.9478   58.1203   42.0063 a2         1 CLA     -0.012600
      4 CAD        75.3281   56.1971   34.9130 ck         1 CLA      0.398800
      5 NA         78.2006   59.0270   37.6214 ns         1 CLA     -0.225500
      6 CBA        80.8385   59.5566   33.6290 a2         1 CLA     -0.135000
      7 CBB        79.5427   62.6409   44.3191 c0         1 CLA     -0.395200
      8 CBC        72.2460   56.6945   42.3893 a3         1 CLA     -0.037700
      9 CBD        76.7321   56.8153   34.6949 a1         1 CLA     -0.053900
     10 NB         77.7439   60.6068   40.2125 nm         1 CLA     -0.295700
     11 OBD        74.7685   55.5134   34.0303 o2         1 CLA     -0.494600
     12 CGA        81.6590   58.3188   33.1050 c4         1 CLA      0.827000
     13 CGD        77.6448   55.7345   34.2474 c4         1 CLA      0.655300
     14 ND         75.4523   57.9657   37.9180 nm         1 CLA     -0.291600
     15 CED        78.3736   53.4547   34.6359 a3         1 CLA      0.005400
     16 CHA        77.0609   57.5784   36.0268 cs         1 CLA     -0.123800
     17 CHB        79.8954   60.3656   38.9408 aa         1 CLA     -0.291900
     18 CHC        76.2471   60.6123   42.1037 aa         1 CLA     -0.090400
     19 CHD        73.4356   57.7838   39.3402 aa         1 CLA     -0.052000
     20 CMA        81.3765   57.9778   37.3545 a3         1 CLA     -0.230700
     21 CMB        81.0768   61.9314   41.3774 a3         1 CLA     -0.180800
     22 CMC        73.8532   59.9364   43.8904 a3         1 CLA     -0.134000
     23 CMD        72.5853   55.7259   36.9110 a3         1 CLA     -0.141100
     24 C1         83.1362   56.5793   33.6638 a2         1 CLA      0.023000
     25 C1A        78.1369   58.3351   36.4141 ac         1 CLA     -0.015100
     26 C1B        79.0952   60.8341   40.0589 cr         1 CLA      0.054700
     27 C1C        75.1380   59.9598   41.6403 cn         1 CLA     -0.005600
     28 C1D        74.2404   57.4406   38.1764 ap         1 CLA     -0.047300
     29 O1A        81.8112   58.0015   31.9337 o2         1 CLA     -0.610800
     30 O1D        78.3936   55.7602   33.2935 o2         1 CLA     -0.558200
     31 C2         83.7768   55.8436   34.7961 c8         1 CLA     -0.325100
     32 C2A        79.4742   58.4800   35.6246 a1         1 CLA      0.098600
     33 C2B        79.5837   61.5122   41.2730 cb         1 CLA      0.088500
     34 C2C        73.9095   59.6538   42.4007 cb         1 CLA      0.053700
     35 C2D        73.8660   56.5407   37.1177 cb         1 CLA      0.058900
     36 O2A        82.3047   57.7299   34.1448 o1         1 CLA     -0.437200
     37 O2D        77.6207   54.6735   35.1136 o1         1 CLA     -0.357600
     38 C3         84.7925   54.9654   34.6906 c5         1 CLA      0.031200
     39 C3A        80.4051   59.0415   36.6967 a1         1 CLA      0.166800
     40 C3B        78.5463   61.7210   42.1666 cb         1 CLA      0.035000
     41 C3C        73.1407   58.8198   41.5997 cb         1 CLA     -0.089900
     42 C3D        74.8950   56.6643   36.2147 cb         1 CLA     -0.035900
     43 C4         84.7374   53.4564   34.4161 a3         1 CLA     -0.053300
     44 C4A        79.4361   59.5184   37.8288 ac         1 CLA      0.001800
     45 C4B        77.4833   60.9804   41.4920 cn         1 CLA     -0.020900
     46 C4C        73.7831   58.6994   40.3555 cr         1 CLA     -0.044400
     47 C4D        75.8656   57.3953   36.8033 c6         1 CLA     -0.046000
     48 C5         86.2909   55.6581   34.8227 a2         1 CLA     -0.070400
     49 C6         86.4859   56.7530   35.8547 a2         1 CLA      0.043900
     50 C7         85.8638   56.5015   37.2302 a2         1 CLA     -0.150000
     51 C8         86.9357   56.0009   38.2350 a1         1 CLA      0.064200
     52 C9         87.4717   54.5876   37.9261 a3         1 CLA     -0.259300
     53 C10        86.3955   56.0677   39.7164 a2         1 CLA     -0.071900
     54 C11        86.2478   57.4509   40.3839 a2         1 CLA      0.014500
     55 C12        86.3281   57.3838   41.9272 a2         1 CLA     -0.112100
     56 C13        86.0240   58.7119   42.6871 a1         1 CLA      0.089200
     57 C14        86.9616   59.9094   42.3288 a3         1 CLA     -0.239100
     58 C15        86.1383   58.3994   44.1867 a2         1 CLA     -0.102200
     59 C16        84.8727   57.6641   44.7348 a2         1 CLA      0.023900
     60 C17        84.8135   57.4302   46.2347 a2         1 CLA     -0.105700
     61 C18        84.7902   58.6949   47.0728 a1         1 CLA      0.206800
     62 C19        83.6934   59.6790   46.6888 a3         1 CLA     -0.280100
     63 C20        84.8162   58.5207   48.6305 a3         1 CLA     -0.280100
     64 NC         74.9851   59.3473   40.4496 nx         1 CLA     -0.309200
     65 MG         76.5051   59.3941   38.8972 mg         1 CLA      0.895000
     66 HMD3       72.2457   55.3296   37.8814 dc         1 CLA      0.064300
     67 HMD2       71.9219   56.3447   36.4210 dc         1 CLA      0.064300
     68 HMD1       72.8855   54.8477   36.3271 dc         1 CLA      0.064300
     69 HMC3       74.7134   59.4760   44.3309 dc         1 CLA      0.052100
     70 HMC2       73.9909   61.0125   44.0203 dc         1 CLA      0.052100
     71 HMC1       72.9424   59.6564   44.3592 dc         1 CLA      0.052100
     72 HMB3       81.5480   61.3605   42.1392 dc         1 CLA      0.063600
     73 HMB2       81.5994   61.8218   40.4746 dc         1 CLA      0.063600
     74 HMB1       81.1823   63.0266   41.6154 dc         1 CLA      0.063600
     75 HMA3       80.7311   57.1273   37.6760 dc         1 CLA      0.058300
     76 HMA2       82.2751   57.7520   36.7507 dc         1 CLA      0.058300
     77 HMA1       81.8151   58.3618   38.3520 dc         1 CLA      0.058300
     78 HED3       79.4296   53.4238   34.6476 dc         1 CLA      0.079300
     79 HED2       78.0579   52.6853   35.3075 dc         1 CLA      0.079300
     80 HED1       78.0490   53.3110   33.6057 dc         1 CLA      0.079300
     81 HBC3       71.3807   56.2608   42.8471 dc         1 CLA      0.016300
     82 HBC2       72.5549   56.1685   41.4873 dc         1 CLA      0.016300
     83 HBC1       73.0352   56.8037   43.1260 dc         1 CLA      0.016300
     84 HBB2       79.4506   63.0539   45.3425 da         1 CLA      0.183000
     85 HBB1       80.5289   62.2779   44.0169 da         1 CLA      0.183000
     86 HBA2       80.6521   60.1734   32.7878 dc         1 CLA      0.029400
     87 HBA1       81.5434   59.9795   34.3344 dc         1 CLA      0.029400
     88 HAC2       71.4867   58.6211   42.8053 dc         1 CLA      0.029300
     89 HAC1       71.2376   58.0722   41.1087 dc         1 CLA      0.029300
     90 HAA2       78.7529   58.8744   33.5879 dc         1 CLA      0.028700
     91 HAA1       79.0339   60.2931   34.5236 dc         1 CLA      0.028700
     92 H203       85.7512   57.9921   48.9439 dc         1 CLA      0.065600
     93 H202       84.6903   59.5606   49.0123 dc         1 CLA      0.065600
     94 H201       83.9348   57.9002   48.9323 dc         1 CLA      0.065600
     95 H193       83.6887   59.9870   45.6236 dc         1 CLA      0.065600
     96 H192       82.6904   59.2625   46.8763 dc         1 CLA      0.065600
     97 H191       83.8428   60.6707   47.1677 dc         1 CLA      0.065600
     98 H172       84.0910   56.7519   46.4656 dc         1 CLA      0.027600
     99 H171       85.7135   56.9217   46.5810 dc         1 CLA      0.027600
    100 H162       83.9324   58.0705   44.3387 dc         1 CLA      0.002900
    101 H161       84.9312   56.6349   44.3111 dc         1 CLA      0.002900
    102 H152       87.0093   57.8452   44.3808 dc         1 CLA      0.029100
    103 H151       86.1881   59.2697   44.7914 dc         1 CLA      0.029100
    104 H143       88.0141   59.6589   42.4312 dc         1 CLA      0.063600
    105 H142       86.9041   60.1319   41.2483 dc         1 CLA      0.063600
    106 H141       86.7434   60.8264   42.8367 dc         1 CLA      0.063600
    107 H122       85.4620   56.7453   42.2623 dc         1 CLA      0.032500
    108 H121       87.3285   56.9789   42.1860 dc         1 CLA      0.032500
    109 H112       87.0972   58.0930   40.1366 dc         1 CLA      0.006600
    110 H111       85.3022   58.0270   40.1924 dc         1 CLA      0.006600
    111 H102       85.4225   55.6039   39.7874 dc         1 CLA      0.024100
    112 H101       87.0938   55.4795   40.3511 dc         1 CLA      0.024100
    113 HHD        72.4663   57.2725   39.3642 da         1 CLA      0.174300
    114 HHC        76.1769   60.9320   43.1718 da         1 CLA      0.136800
    115 HHB        81.0042   60.4897   39.0583 da         1 CLA      0.138300
    116 HBD        76.5765   57.4979   33.8654 dc         1 CLA      0.107700
    117 HAB        77.4881   62.6837   43.9304 da         1 CLA      0.155200
    118 H93        87.6050   54.2847   36.8912 dc         1 CLA      0.069500
    119 H92        88.3885   54.3495   38.4398 dc         1 CLA      0.069500
    120 H91        86.7427   53.9361   38.4109 dc         1 CLA      0.069500
    121 H8         87.8971   56.5647   38.0938 dc         1 CLA      0.029300
    122 H72        85.4739   57.4131   37.6501 dc         1 CLA      0.044400
    123 H71        84.9652   55.8855   37.2230 dc         1 CLA      0.044400
    124 H62        87.5658   56.8894   35.8772 dc         1 CLA      0.015600
    125 H61        86.0602   57.6999   35.4007 dc         1 CLA      0.015600
    126 H52        86.9677   54.8171   34.9709 dc         1 CLA      0.033200
    127 H51        86.6489   56.0458   33.8468 dc         1 CLA      0.033200
    128 H43        84.8961   53.2941   33.3829 dc         1 CLA      0.037000
    129 H42        85.4671   53.0609   35.1090 dc         1 CLA      0.037000
    130 H41        83.7798   52.9735   34.7145 dc         1 CLA      0.037000
    131 H3A        80.9708   59.9723   36.4237 dc         1 CLA      0.041100
    132 H2A        79.8629   57.4865   35.3402 dc         1 CLA      0.083100
    133 H2         83.3484   55.9827   35.7795 da         1 CLA      0.180900
    134 H18        85.7300   59.2059   46.8375 dc         1 CLA     -0.003900
    135 H13        84.9783   59.0109   42.4601 dc         1 CLA      0.019700
    136 H12        82.4608   55.8577   33.1210 dc         1 CLA      0.120400
    137 H11        84.0126   56.8592   33.0975 dc         1 CLA      0.120400
    138 C1         68.5870   61.2183   49.4906 Z1         2 LUT      0.509236
    139 C2         67.0828   61.1354   49.8631 Z2         2 LUT     -0.434695
    140 C3         66.3477   62.4418   50.3377 Z3         2 LUT      0.437453
    141 O3         66.1912   62.2422   51.7089 S1         2 LUT     -0.547129
    142 C4         67.0850   63.6853   49.8845 Z4         2 LUT     -0.468603
    143 C5         67.9553   63.4864   48.6264 Z5         2 LUT      0.279246
    144 C6         68.7356   62.4036   48.4815 Z6         2 LUT     -0.305473
    145 C7         69.1653   61.9734   47.0789 Z7         2 LUT      0.069402
    146 C8         70.0180   62.6118   46.2830 Z8         2 LUT     -0.191631
    147 C9         70.5953   62.2667   45.0009 Z9         2 LUT      0.196698
    148 C10        71.7021   63.0130   44.6830 Y1         2 LUT     -0.208611
    149 C11        72.5334   63.0793   43.5488 Y2         2 LUT      0.030784
    150 C12        73.7005   63.7377   43.4375 Y3         2 LUT     -0.220316
    151 C13        74.5604   63.8804   42.2828 Y4         2 LUT      0.215937
    152 C14        75.7140   64.5544   42.4491 Y5         2 LUT     -0.185793
    153 C15        76.6828   64.7832   41.4332 Y6         2 LUT     -0.057835
    154 C16        68.9567   59.7267   49.0858 Y7         2 LUT     -0.405615
    155 C17        69.4167   61.5348   50.7392 Y7         2 LUT     -0.405615
    156 C18        67.3219   64.2702   47.4783 Y9         2 LUT     -0.369639
    157 C19        69.9165   61.2363   44.0961 W1         2 LUT     -0.333362
    158 C20        74.1088   63.1916   40.9872 W2         2 LUT     -0.323439
    159 C21        88.3298   65.9397   35.4613 Z1         2 LUT      0.406104
    160 C22        89.1522   65.5019   34.2317 Z2         2 LUT     -0.404965
    161 C23        89.0619   66.4032   33.0121 Z3         2 LUT      0.391255
    162 O23        89.4909   65.6209   31.9426 S1         2 LUT     -0.528210
    163 C24        87.6753   66.8872   32.7817 W6         2 LUT     -0.258361
    164 C25        86.7070   66.9394   33.6556 Z5         2 LUT      0.133546
    165 C26        86.9024   66.3510   35.0530 W8         2 LUT     -0.147008
    166 C27        86.0088   66.9272   36.1733 Z7         2 LUT      0.023843
    167 C28        84.8687   66.4247   36.7061 Z8         2 LUT     -0.216987
    168 C29        84.2543   66.7387   37.9603 Z9         2 LUT      0.206524
    169 C30        83.0006   66.1484   38.2836 Y1         2 LUT     -0.215556
    170 C31        82.1954   66.2237   39.4958 Y2         2 LUT      0.025142
    171 C32        80.9545   65.7674   39.6362 Y3         2 LUT     -0.212209
    172 C33        80.2331   65.8455   40.8484 Y4         2 LUT      0.240937
    173 C34        78.9986   65.1959   40.8372 Y5         2 LUT     -0.218862
    174 C35        77.9827   65.1879   41.8152 Y6         2 LUT     -0.023547
    175 C36        89.2028   67.0863   36.0366 Y7         2 LUT     -0.393485
    176 C37        88.4579   64.7493   36.5338 Y7         2 LUT     -0.393485
    177 C38        85.3638   67.6020   33.2824 Y9         2 LUT     -0.387526
    178 C39        85.0575   67.6699   38.9270 W1         2 LUT     -0.322618
    179 C40        80.7418   66.4379   42.1401 W2         2 LUT     -0.358472
    180 H403       81.1336   67.4753   42.0380 R7         2 LUT      0.097720
    181 H402       79.9685   66.5466   42.8922 R7         2 LUT      0.097720
    182 H401       81.4951   65.8292   42.4705 R7         2 LUT      0.097720
    183 H393       84.8503   68.6546   38.5513 R4         2 LUT      0.082505
    184 H392       84.7213   67.5518   39.9174 R4         2 LUT      0.082505
    185 H391       86.1574   67.4677   38.9307 R4         2 LUT      0.082505
    186 H383       84.9252   68.2651   34.0897 R1         2 LUT      0.104030
    187 H382       85.5379   68.2323   32.4421 R1         2 LUT      0.104030
    188 H381       84.6215   66.8448   32.9911 R1         2 LUT      0.104030
    189 H373       87.7704   63.9713   36.2866 T4         2 LUT      0.089537
    190 H372       89.4217   64.4365   36.5584 T4         2 LUT      0.089537
    191 H371       88.2081   65.0793   37.5325 T4         2 LUT      0.089537
    192 H363       88.7574   67.4158   36.9754 T4         2 LUT      0.089537
    193 H362       90.1505   66.7567   36.3982 T4         2 LUT      0.089537
    194 H361       89.3092   67.9309   35.3345 T4         2 LUT      0.089537
    195 H222       90.2189   65.3231   34.4487 U2         2 LUT      0.127376
    196 H221       88.7089   64.5625   33.8671 U2         2 LUT      0.127376
    197 H203       73.7377   62.1659   41.0391 R7         2 LUT      0.087068
    198 H202       73.2733   63.7578   40.6135 R7         2 LUT      0.087068
    199 H201       74.7857   63.2080   40.1284 R7         2 LUT      0.087068
    200 H193       69.7216   61.5898   43.0980 R4         2 LUT      0.089716
    201 H192       70.6557   60.4500   43.9553 R4         2 LUT      0.089716
    202 H191       68.8989   60.9621   44.3518 R4         2 LUT      0.089716
    203 H183       67.0088   65.3392   47.7383 R1         2 LUT      0.094572
    204 H182       67.9906   64.3936   46.6559 R1         2 LUT      0.094572
    205 H181       66.4846   63.6009   47.0866 R1         2 LUT      0.094572
    206 H173       69.5640   60.6805   51.4115 T4         2 LUT      0.093752
    207 H172       70.4345   61.9528   50.4641 T4         2 LUT      0.093752
    208 H171       68.9765   62.3349   51.3729 T4         2 LUT      0.093752
    209 H163       69.9140   59.5699   48.6155 T4         2 LUT      0.093752
    210 H162       69.0007   59.1390   50.0025 T4         2 LUT      0.093752
    211 H161       68.1723   59.3027   48.4405 T4         2 LUT      0.093752
    212 HO3        65.4080   61.7324   51.8873 Q1         2 LUT      0.300121
    213 H8         70.4161   63.4692   46.7912 U7         2 LUT      0.080784
    214 H7         68.7250   61.0558   46.7470 U6         2 LUT      0.042190
    215 H42        66.4513   64.4939   49.7611 U5         2 LUT      0.145166
    216 H41        67.7427   63.9993   50.7092 U5         2 LUT      0.145166
    217 H35        78.1886   65.2955   42.8699 T3         2 LUT      0.077919
    218 H34        78.8028   64.6976   39.9108 T2         2 LUT      0.073626
    219 H32        80.5041   65.3314   38.7025 T1         2 LUT      0.092510
    220 H31        82.6828   66.5467   40.3770 U9         2 LUT      0.070048
    221 H30        82.7486   65.5660   37.4312 U8         2 LUT      0.085442
    222 H3         65.4343   62.5721   49.7748 U3         2 LUT     -0.031596
    223 H28        84.3286   65.9388   35.9478 U7         2 LUT      0.084728
    224 H27        86.5548   67.6488   36.7652 U6         2 LUT      0.087291
    225 H26        86.4461   65.3592   34.8799 Q6         2 LUT      0.075325
    226 H24        87.5745   67.4132   31.8456 Q5         2 LUT      0.094482
    227 H23        89.6879   67.3208   33.1969 U3         2 LUT     -0.024869
    228 H22        66.5292   60.8776   48.9336 U2         2 LUT      0.127376
    229 H21        66.7681   60.3073   50.4560 U2         2 LUT      0.127376
    230 H15        76.5559   64.5655   40.4088 T3         2 LUT      0.093200
    231 H14        76.0665   64.9403   43.3655 T2         2 LUT      0.068865
    232 H12        73.9778   64.1946   44.3262 T1         2 LUT      0.095507
    233 H11        72.0929   62.6555   42.6422 U9         2 LUT      0.068930
    234 H10        72.0097   63.6500   45.5035 U8         2 LUT      0.083911
    235 H1         89.8761   66.1879   31.2572 Q1         2 LUT      0.297311
@<TRIPOS>BOND
    1     6     1 1
    2     7     2 1
    3     8     3 1
    4     9     4 1
    5    11     4 1
    6    12     6 1
    7    13     9 1
    8    16     9 1
    9    25     5 1
   10    25    16 1
   11    26    10 1
   12    26    17 1
   13    27    18 1
   14    28    14 1
   15    28    19 1
   16    29    12 1
   17    30    13 1
   18    31    24 1
   19    32     1 1
   20    32    25 1
   21    33    21 1
   22    33    26 1
   23    34    22 1
   24    34    27 1
   25    35    23 1
   26    35    28 1
   27    36    12 1
   28    36    24 1
   29    37    13 1
   30    37    15 1
   31    38    31 1
   32    39    20 1
   33    39    32 1
   34    40     2 1
   35    40    33 1
   36    41     3 1
   37    41    34 1
   38    42     4 1
   39    42    35 1
   40    43    38 1
   41    44     5 1
   42    44    17 1
   43    44    39 1
   44    45    10 1
   45    45    18 1
   46    45    40 1
   47    46    19 1
   48    46    41 1
   49    47    14 1
   50    47    16 1
   51    47    42 1
   52    48    38 1
   53    49    48 1
   54    50    49 1
   55    51    50 1
   56    52    51 1
   57    53    51 1
   58    54    53 1
   59    55    54 1
   60    56    55 1
   61    57    56 1
   62    58    56 1
   63    59    58 1
   64    60    59 1
   65    61    60 1
   66    62    61 1
   67    63    61 1
   68    64    27 1
   69    64    46 1
   70    65     5 1
   71    65    10 1
   72    65    64 1
   73    65    14 1
   74    66    23 1
   75    67    23 1
   76    68    23 1
   77    69    22 1
   78    70    22 1
   79    71    22 1
   80    72    21 1
   81    73    21 1
   82    74    21 1
   83    75    20 1
   84    76    20 1
   85    77    20 1
   86    78    15 1
   87    79    15 1
   88    80    15 1
   89    81     8 1
   90    82     8 1
   91    83     8 1
   92    84     7 1
   93    85     7 1
   94    86     6 1
   95    87     6 1
   96    88     3 1
   97    89     3 1
   98    90     1 1
   99    91     1 1
  100    92    63 1
  101    93    63 1
  102    94    63 1
  103    95    62 1
  104    96    62 1
  105    97    62 1
  106    98    60 1
  107    99    60 1
  108   100    59 1
  109   101    59 1
  110   102    58 1
  111   103    58 1
  112   104    57 1
  113   105    57 1
  114   106    57 1
  115   107    55 1
  116   108    55 1
  117   109    54 1
  118   110    54 1
  119   111    53 1
  120   112    53 1
  121   113    19 1
  122   114    18 1
  123   115    17 1
  124   116     9 1
  125   117     2 1
  126   118    52 1
  127   119    52 1
  128   120    52 1
  129   121    51 1
  130   122    50 1
  131   123    50 1
  132   124    49 1
  133   125    49 1
  134   126    48 1
  135   127    48 1
  136   128    43 1
  137   129    43 1
  138   130    43 1
  139   131    39 1
  140   132    32 1
  141   133    31 1
  142   134    61 1
  143   135    56 1
  144   136    24 1
  145   137    24 1
  146   139   138 1
  147   140   139 1
  148   141   140 1
  149   142   140 1
  150   143   142 1
  151   144   138 1
  152   144   143 1
  153   145   144 1
  154   146   145 1
  155   147   146 1
  156   148   147 1
  157   149   148 1
  158   150   149 1
  159   151   150 1
  160   152   151 1
  161   153   152 1
  162   154   138 1
  163   155   138 1
  164   156   143 1
  165   157   147 1
  166   158   151 1
  167   160   159 1
  168   161   160 1
  169   162   161 1
  170   163   161 1
  171   164   163 1
  172   165   159 1
  173   165   164 1
  174   166   165 1
  175   167   166 1
  176   168   167 1
  177   169   168 1
  178   170   169 1
  179   171   170 1
  180   172   171 1
  181   173   172 1
  182   174   153 1
  183   174   173 1
  184   175   159 1
  185   176   159 1
  186   177   164 1
  187   178   168 1
  188   179   172 1
  189   180   179 1
  190   181   179 1
  191   182   179 1
  192   183   178 1
  193   184   178 1
  194   185   178 1
  195   186   177 1
  196   187   177 1
  197   188   177 1
  198   189   176 1
  199   190   176 1
  200   191   176 1
  201   192   175 1
  202   193   175 1
  203   194   175 1
  204   195   160 1
  205   196   160 1
  206   197   158 1
  207   198   158 1
  208   199   158 1
  209   200   157 1
  210   201   157 1
  211   202   157 1
  212   203   156 1
  213   204   156 1
  214   205   156 1
  215   206   155 1
  216   207   155 1
  217   208   155 1
  218   209   154 1
  219   210   154 1
  220   211   154 1
  221   212   141 1
  222   213   146 1
  223   214   145 1
  224   215   142 1
  225   216   142 1
  226   217   174 1
  227   218   173 1
  228   219   171 1
  229   220   170 1
  230   221   169 1
  231   222   140 1
  232   223   167 1
  233   224   166 1
  234   225   165 1
  235   226   163 1
  236   227   161 1
  237   228   139 1
  238   229   139 1
  239   230   153 1
  240   231   152 1
  241   232   150 1
  242   233   149 1
  243   234   148 1
  244   235   162 1
  245   65    153 1
  246   65    174 1
@<TRIPOS>SUBSTRUCTURE
      1 CLA               1 ****               0 ****  **** 
      2 LUT             138 ****               0 ****  **** 
