@<TRIPOS>MOLECULE
Cpptraj generated mol2 file.
  235   246     2     0     0
SMALL
USER_CHARGES


@<TRIPOS>ATOM
      1 CAA        79.2658   58.2837   34.2578 a2         1 CLA     -0.055900
      2 CAB        78.8528   62.4383   43.2158 c8         1 CLA     -0.148500
      3 CAC        72.0864   57.8751   42.9252 a2         1 CLA     -0.012600
      4 CAD        74.9373   55.7874   35.4598 ck         1 CLA      0.398800
      5 NA         77.9367   58.8476   37.7666 ns         1 CLA     -0.225500
      6 CBA        80.5390   58.2773   33.3968 a2         1 CLA     -0.135000
      7 CBB        80.0600   62.7051   43.7201 c0         1 CLA     -0.395200
      8 CBC        72.3141   56.3892   43.1301 a3         1 CLA     -0.037700
      9 CBD        76.3410   56.3366   35.1834 a1         1 CLA     -0.053900
     10 NB         77.7841   60.3610   40.3174 nm         1 CLA     -0.295700
     11 OBD        74.3115   55.0494   34.7370 o2         1 CLA     -0.494600
     12 CGA        81.1193   56.8973   33.1552 c4         1 CLA      0.827000
     13 CGD        77.4054   55.2664   35.1847 c4         1 CLA      0.655300
     14 ND         75.1690   57.8510   38.2474 nm         1 CLA     -0.291600
     15 CED        78.2541   53.3080   36.2748 a3         1 CLA      0.005400
     16 CHA        76.6735   57.3597   36.3458 cs         1 CLA     -0.123800
     17 CHB        79.6663   60.3344   38.7666 aa         1 CLA     -0.291900
     18 CHC        76.3966   60.5685   42.3428 aa         1 CLA     -0.090400
     19 CHD        73.4576   57.5482   39.9805 aa         1 CLA     -0.052000
     20 CMA        81.4899   58.3933   37.2239 a3         1 CLA     -0.230700
     21 CMB        80.8142   62.4053   40.5990 a3         1 CLA     -0.180800
     22 CMC        74.0385   59.9635   44.3132 a3         1 CLA     -0.134000
     23 CMD        72.0042   55.8879   37.6800 a3         1 CLA     -0.141100
     24 C1         81.9935   54.9640   34.2574 a2         1 CLA      0.023000
     25 C1A        77.8623   58.1124   36.5866 ac         1 CLA     -0.015100
     26 C1B        79.0249   60.7214   39.9505 cr         1 CLA      0.054700
     27 C1C        75.3179   59.7173   42.0826 cn         1 CLA     -0.005600
     28 C1D        73.9834   57.2538   38.6812 ap         1 CLA     -0.047300
     29 O1A        80.9164   56.1797   32.1442 o2         1 CLA     -0.610800
     30 O1D        78.2189   55.1739   34.3118 o2         1 CLA     -0.558200
     31 C2         82.8316   54.4937   35.3958 c8         1 CLA     -0.325100
     32 C2A        79.2540   57.9748   35.8249 a1         1 CLA      0.098600
     33 C2B        79.5207   61.6718   40.8360 cb         1 CLA      0.088500
     34 C2C        74.1898   59.4002   42.9477 cb         1 CLA      0.053700
     35 C2D        73.3745   56.5175   37.6283 cb         1 CLA      0.058900
     36 O2A        81.8181   56.3983   34.2881 o1         1 CLA     -0.437200
     37 O2D        77.2378   54.3623   36.1952 o1         1 CLA     -0.357600
     38 C3         83.7780   53.5384   35.3508 c5         1 CLA      0.031200
     39 C3A        80.1487   58.9241   36.7097 a1         1 CLA      0.166800
     40 C3B        78.6529   61.6712   41.9591 cb         1 CLA      0.035000
     41 C3C        73.3455   58.5456   42.2905 cb         1 CLA     -0.089900
     42 C3D        74.5327   56.4405   36.7066 cb         1 CLA     -0.035900
     43 C4         83.3814   52.0842   35.6192 a3         1 CLA     -0.053300
     44 C4A        79.1957   59.4046   37.8220 ac         1 CLA      0.001800
     45 C4B        77.5249   60.8130   41.5989 cn         1 CLA     -0.020900
     46 C4C        73.9622   58.3735   40.9954 cr         1 CLA     -0.044400
     47 C4D        75.5050   57.3176   37.1359 c6         1 CLA     -0.046000
     48 C5         85.3390   53.9414   35.1659 a2         1 CLA     -0.070400
     49 C6         85.6890   55.3576   35.6326 a2         1 CLA      0.043900
     50 C7         85.4314   55.3908   37.1751 a2         1 CLA     -0.150000
     51 C8         85.4929   56.7651   37.9609 a1         1 CLA      0.064200
     52 C9         86.4136   57.6982   37.3042 a3         1 CLA     -0.259300
     53 C10        85.7104   56.5511   39.4856 a2         1 CLA     -0.071900
     54 C11        86.0381   57.8174   40.3876 a2         1 CLA      0.014500
     55 C12        86.0078   57.4785   41.9447 a2         1 CLA     -0.112100
     56 C13        86.1276   58.6712   42.9442 a1         1 CLA      0.089200
     57 C14        87.4500   59.4930   42.7518 a3         1 CLA     -0.239100
     58 C15        85.9741   58.1081   44.4304 a2         1 CLA     -0.102200
     59 C16        85.3665   59.0380   45.4841 a2         1 CLA      0.023900
     60 C17        85.2446   58.3755   46.9027 a2         1 CLA     -0.105700
     61 C18        84.5414   59.1370   48.0390 a1         1 CLA      0.206800
     62 C19        83.1347   59.5904   47.6672 a3         1 CLA     -0.280100
     63 C20        84.6758   58.3531   49.3852 a3         1 CLA     -0.280100
     64 NC         75.1323   59.1353   40.8663 nx         1 CLA     -0.309200
     65 MG         76.4052   59.1444   39.1906 mg         1 CLA      0.895000
     66 HMD3       71.9031   55.0103   37.0309 dc         1 CLA      0.064300
     67 HMD2       71.8404   55.6547   38.6912 dc         1 CLA      0.064300
     68 HMD1       71.3012   56.6956   37.3176 dc         1 CLA      0.064300
     69 HMC3       74.8433   60.6342   44.5024 dc         1 CLA      0.052100
     70 HMC2       73.1313   60.5157   44.4874 dc         1 CLA      0.052100
     71 HMC1       74.0827   59.1245   44.9941 dc         1 CLA      0.052100
     72 HMB3       81.0008   63.2593   41.2313 dc         1 CLA      0.063600
     73 HMB2       81.6265   61.6175   40.6656 dc         1 CLA      0.063600
     74 HMB1       80.7915   62.7490   39.5726 dc         1 CLA      0.063600
     75 HMA3       81.3417   57.6278   37.9371 dc         1 CLA      0.058300
     76 HMA2       82.1735   58.2095   36.4254 dc         1 CLA      0.058300
     77 HMA1       81.9898   59.2000   37.7583 dc         1 CLA      0.058300
     78 HED3       78.1467   52.6327   35.4102 dc         1 CLA      0.079300
     79 HED2       79.2549   53.6680   36.4968 dc         1 CLA      0.079300
     80 HED1       77.9731   52.6353   37.0813 dc         1 CLA      0.079300
     81 HBC3       72.5466   55.8625   42.2298 dc         1 CLA      0.016300
     82 HBC2       73.2583   56.3584   43.6405 dc         1 CLA      0.016300
     83 HBC1       71.5018   55.9311   43.6708 dc         1 CLA      0.016300
     84 HBB2       80.1302   63.4083   44.5314 da         1 CLA      0.183000
     85 HBB1       81.0607   62.2811   43.4801 da         1 CLA      0.183000
     86 HBA2       80.2937   58.7478   32.4276 dc         1 CLA      0.029400
     87 HBA1       81.3435   58.8497   33.9208 dc         1 CLA      0.029400
     88 HAC2       71.9616   58.1691   44.0047 dc         1 CLA      0.029300
     89 HAC1       71.1689   58.1869   42.3716 dc         1 CLA      0.029300
     90 HAA2       78.4448   57.7140   33.7966 dc         1 CLA      0.028700
     91 HAA1       78.9896   59.3469   34.1222 dc         1 CLA      0.028700
     92 H203       83.8707   57.4998   49.3075 dc         1 CLA      0.065600
     93 H202       85.6303   57.9492   49.6165 dc         1 CLA      0.065600
     94 H201       84.1961   58.9553   50.1700 dc         1 CLA      0.065600
     95 H193       82.5834   58.6672   47.5391 dc         1 CLA      0.065600
     96 H192       82.7000   60.2812   48.3893 dc         1 CLA      0.065600
     97 H191       83.1698   60.1988   46.7620 dc         1 CLA      0.065600
     98 H172       84.7254   57.4175   46.7298 dc         1 CLA      0.027600
     99 H171       86.1565   57.9838   47.1903 dc         1 CLA      0.027600
    100 H162       85.9901   59.8402   45.5985 dc         1 CLA      0.002900
    101 H161       84.3310   59.3923   45.1509 dc         1 CLA      0.002900
    102 H152       85.3099   57.2625   44.2724 dc         1 CLA      0.029100
    103 H151       86.9777   57.8624   44.7257 dc         1 CLA      0.029100
    104 H143       87.6688   60.1771   43.5896 dc         1 CLA      0.063600
    105 H142       88.3953   58.9434   42.7242 dc         1 CLA      0.063600
    106 H141       87.3489   59.9526   41.7380 dc         1 CLA      0.063600
    107 H122       85.1026   56.9315   42.1177 dc         1 CLA      0.032500
    108 H121       86.8903   56.8546   42.1367 dc         1 CLA      0.032500
    109 H112       86.9193   58.3325   40.0966 dc         1 CLA      0.006600
    110 H111       85.2730   58.5879   40.2290 dc         1 CLA      0.006600
    111 H102       84.8294   56.0168   39.8292 dc         1 CLA      0.024100
    112 H101       86.5351   55.8766   39.6154 dc         1 CLA      0.024100
    113 HHD        72.4884   57.1572   40.1074 da         1 CLA      0.174300
    114 HHC        76.3528   61.0966   43.2663 da         1 CLA      0.136800
    115 HHB        80.7079   60.6343   38.6396 da         1 CLA      0.138300
    116 HBD        76.3245   56.9042   34.2934 dc         1 CLA      0.107700
    117 HAB        78.0016   62.9519   43.5269 da         1 CLA      0.155200
    118 H93        86.5515   58.6624   37.8653 dc         1 CLA      0.069500
    119 H92        87.5029   57.4002   37.2123 dc         1 CLA      0.069500
    120 H91        86.0114   57.9169   36.3073 dc         1 CLA      0.069500
    121 H8         84.5142   57.1708   37.8942 dc         1 CLA      0.029300
    122 H72        84.4982   54.9145   37.5806 dc         1 CLA      0.044400
    123 H71        86.3061   54.8292   37.5888 dc         1 CLA      0.044400
    124 H62        86.7017   55.6083   35.2917 dc         1 CLA      0.015600
    125 H61        84.9477   56.0171   35.0716 dc         1 CLA      0.015600
    126 H52        86.0261   53.2550   35.6575 dc         1 CLA      0.033200
    127 H51        85.5938   53.9125   34.1087 dc         1 CLA      0.033200
    128 H43        83.9301   51.4231   34.9967 dc         1 CLA      0.037000
    129 H42        83.6402   51.9053   36.6563 dc         1 CLA      0.037000
    130 H41        82.3051   51.9108   35.6007 dc         1 CLA      0.037000
    131 H3A        80.4094   59.7524   35.9880 dc         1 CLA      0.041100
    132 H2A        79.5790   56.9182   35.9922 dc         1 CLA      0.083100
    133 H2         82.6733   55.1590   36.2885 da         1 CLA      0.180900
    134 H18        85.1608   60.0473   48.1317 dc         1 CLA     -0.003900
    135 H13        85.3242   59.3812   42.8243 dc         1 CLA      0.019700
    136 H12        80.9961   54.4502   34.2860 dc         1 CLA      0.120400
    137 H11        82.5572   54.6934   33.3460 dc         1 CLA      0.120400
    138 C1         68.2815   61.0125   49.6389 Z1         2 LUT      0.509236
    139 C2         66.9105   61.0023   50.2364 Z2         2 LUT     -0.434695
    140 C3         66.4065   62.3469   50.7879 Z3         2 LUT      0.437453
    141 O3         66.8841   62.7134   52.1336 S1         2 LUT     -0.547129
    142 C4         66.6587   63.4068   49.7830 Z4         2 LUT     -0.468603
    143 C5         67.5717   63.1446   48.5690 Z5         2 LUT      0.279246
    144 C6         68.4179   62.0781   48.5207 Z6         2 LUT     -0.305473
    145 C7         69.0717   61.8095   47.2198 Z7         2 LUT      0.069402
    146 C8         69.9374   62.5976   46.5693 Z8         2 LUT     -0.191631
    147 C9         70.4966   62.3879   45.2340 Z9         2 LUT      0.196698
    148 C10        71.3930   63.3093   44.6457 Y1         2 LUT     -0.208611
    149 C11        72.1303   63.2203   43.4040 Y2         2 LUT      0.030784
    150 C12        73.3212   63.7856   43.0758 Y3         2 LUT     -0.220316
    151 C13        74.2253   63.5821   41.9546 Y4         2 LUT      0.215937
    152 C14        75.3757   64.3248   41.9688 Y5         2 LUT     -0.185793
    153 C15        76.4859   64.2473   41.0738 Y6         2 LUT     -0.057835
    154 C16        68.5804   59.5854   49.1173 Y7         2 LUT     -0.405615
    155 C17        69.3092   61.4705   50.7246 Y7         2 LUT     -0.405615
    156 C18        67.0843   63.9365   47.3398 Y9         2 LUT     -0.369639
    157 C19        70.0402   61.1343   44.4696 W1         2 LUT     -0.333362
    158 C20        73.7648   62.7044   40.7870 W2         2 LUT     -0.323439
    159 C21        88.0902   65.7814   34.8684 Z1         2 LUT      0.406104
    160 C22        88.7215   65.2132   33.5961 Z2         2 LUT     -0.404965
    161 C23        88.6840   66.1813   32.3913 Z3         2 LUT      0.391255
    162 O23        89.0900   65.3727   31.2514 S1         2 LUT     -0.528210
    163 C24        87.2428   66.7047   32.1923 W6         2 LUT     -0.258361
    164 C25        86.2674   66.7016   33.1497 Z5         2 LUT      0.133546
    165 C26        86.5327   66.0886   34.6060 W8         2 LUT     -0.147008
    166 C27        85.8764   66.8522   35.7697 Z7         2 LUT      0.023843
    167 C28        84.6691   66.5934   36.2040 Z8         2 LUT     -0.216987
    168 C29        84.0296   66.9375   37.4675 Z9         2 LUT      0.206524
    169 C30        82.9447   66.1946   37.8415 Y1         2 LUT     -0.215556
    170 C31        82.0607   66.2787   38.9668 Y2         2 LUT      0.025142
    171 C32        80.9114   65.6142   39.1017 Y3         2 LUT     -0.212209
    172 C33        79.9259   65.6634   40.2290 Y4         2 LUT      0.240937
    173 C34        78.7172   64.9950   40.1854 Y5         2 LUT     -0.218862
    174 C35        77.5963   65.0469   41.1170 Y6         2 LUT     -0.023547
    175 C36        88.9326   67.0098   35.2855 Y7         2 LUT     -0.393485
    176 C37        88.3687   64.7499   35.9495 Y7         2 LUT     -0.393485
    177 C38        84.9062   67.2101   32.9159 Y9         2 LUT     -0.387526
    178 C39        84.7058   68.0348   38.2784 W1         2 LUT     -0.322618
    179 C40        80.4282   66.2332   41.5208 W2         2 LUT     -0.358472
    180 H403       79.9616   65.8481   42.3510 R7         2 LUT      0.097720
    181 H402       81.4945   66.0590   41.7517 R7         2 LUT      0.097720
    182 H401       80.3256   67.3507   41.6454 R7         2 LUT      0.097720
    183 H393       84.9643   68.9485   37.7231 R4         2 LUT      0.082505
    184 H392       84.0654   68.3054   39.0842 R4         2 LUT      0.082505
    185 H391       85.5678   67.7055   38.8297 R4         2 LUT      0.082505
    186 H383       84.9345   67.7631   31.9787 R1         2 LUT      0.104030
    187 H382       84.2595   66.3117   32.7725 R1         2 LUT      0.104030
    188 H381       84.5768   67.9465   33.6847 R1         2 LUT      0.104030
    189 H373       87.6217   63.9914   35.9569 T4         2 LUT      0.089537
    190 H372       89.2754   64.3510   35.9370 T4         2 LUT      0.089537
    191 H371       88.2610   65.1351   37.0157 T4         2 LUT      0.089537
    192 H363       88.6029   67.5065   36.2226 T4         2 LUT      0.089537
    193 H362       90.0047   66.7391   35.3431 T4         2 LUT      0.089537
    194 H361       88.7597   67.8372   34.5476 T4         2 LUT      0.089537
    195 H222       89.7608   64.7912   33.7335 U2         2 LUT      0.127376
    196 H221       88.0717   64.4594   33.2827 U2         2 LUT      0.127376
    197 H203       74.3431   62.8804   39.9033 R7         2 LUT      0.087068
    198 H202       73.8014   61.6240   41.0070 R7         2 LUT      0.087068
    199 H201       72.7927   63.0968   40.4844 R7         2 LUT      0.087068
    200 H193       70.1028   61.2892   43.4162 R4         2 LUT      0.089716
    201 H192       70.6041   60.2911   44.7851 R4         2 LUT      0.089716
    202 H191       68.9541   60.8347   44.5442 R4         2 LUT      0.089716
    203 H183       67.5001   64.9381   47.3845 R1         2 LUT      0.094572
    204 H182       67.1874   63.3990   46.4065 R1         2 LUT      0.094572
    205 H181       65.9985   64.2108   47.4618 R1         2 LUT      0.094572
    206 H173       69.2628   62.5844   50.9604 T4         2 LUT      0.093752
    207 H172       69.0525   60.9535   51.6855 T4         2 LUT      0.093752
    208 H171       70.2898   61.2165   50.4562 T4         2 LUT      0.093752
    209 H163       67.8547   59.2787   48.3254 T4         2 LUT      0.093752
    210 H162       69.6094   59.4603   48.7215 T4         2 LUT      0.093752
    211 H161       68.4678   58.7730   49.7859 T4         2 LUT      0.093752
    212 HO3        66.7140   61.9753   52.7410 Q1         2 LUT      0.300121
    213 H8         70.2721   63.5034   47.1297 U7         2 LUT      0.080784
    214 H7         68.8118   60.9349   46.7510 U6         2 LUT      0.042190
    215 H42        65.6017   63.7312   49.5304 U5         2 LUT      0.145166
    216 H41        67.1154   64.2878   50.2206 U5         2 LUT      0.145166
    217 H35        77.6012   65.7654   41.9709 T3         2 LUT      0.077919
    218 H34        78.6142   64.3216   39.3495 T2         2 LUT      0.073626
    219 H32        80.5444   64.9599   38.2154 T1         2 LUT      0.092510
    220 H31        82.3039   66.9556   39.7315 U9         2 LUT      0.070048
    221 H30        82.5781   65.4514   37.1317 U8         2 LUT      0.085442
    222 H3         65.3290   62.1041   50.8906 U3         2 LUT     -0.031596
    223 H28        84.1255   65.7996   35.7250 U7         2 LUT      0.084728
    224 H27        86.3818   67.4857   36.5229 U6         2 LUT      0.087291
    225 H26        86.0823   65.1558   34.4032 Q6         2 LUT      0.075325
    226 H24        87.0494   67.1276   31.2160 Q5         2 LUT      0.094482
    227 H23        89.4080   67.0371   32.4881 U3         2 LUT     -0.024869
    228 H22        66.2683   60.7359   49.3936 U2         2 LUT      0.127376
    229 H21        66.7705   60.1680   50.9991 U2         2 LUT      0.127376
    230 H15        76.4148   63.5944   40.2473 T3         2 LUT      0.093200
    231 H14        75.5544   65.0329   42.8132 T2         2 LUT      0.068865
    232 H12        73.7624   64.3844   43.8712 T1         2 LUT      0.095507
    233 H11        71.7928   62.4705   42.6485 U9         2 LUT      0.068930
    234 H10        71.6680   64.1746   45.2011 U8         2 LUT      0.083911
    235 H1         89.1957   65.8578   30.4520 Q1         2 LUT      0.297311
@<TRIPOS>BOND
    1     6     1 1
    2     7     2 1
    3     8     3 1
    4     9     4 1
    5    11     4 1
    6    12     6 1
    7    13     9 1
    8    16     9 1
    9    25     5 1
   10    25    16 1
   11    26    10 1
   12    26    17 1
   13    27    18 1
   14    28    14 1
   15    28    19 1
   16    29    12 1
   17    30    13 1
   18    31    24 1
   19    32     1 1
   20    32    25 1
   21    33    21 1
   22    33    26 1
   23    34    22 1
   24    34    27 1
   25    35    23 1
   26    35    28 1
   27    36    12 1
   28    36    24 1
   29    37    13 1
   30    37    15 1
   31    38    31 1
   32    39    20 1
   33    39    32 1
   34    40     2 1
   35    40    33 1
   36    41     3 1
   37    41    34 1
   38    42     4 1
   39    42    35 1
   40    43    38 1
   41    44     5 1
   42    44    17 1
   43    44    39 1
   44    45    10 1
   45    45    18 1
   46    45    40 1
   47    46    19 1
   48    46    41 1
   49    47    14 1
   50    47    16 1
   51    47    42 1
   52    48    38 1
   53    49    48 1
   54    50    49 1
   55    51    50 1
   56    52    51 1
   57    53    51 1
   58    54    53 1
   59    55    54 1
   60    56    55 1
   61    57    56 1
   62    58    56 1
   63    59    58 1
   64    60    59 1
   65    61    60 1
   66    62    61 1
   67    63    61 1
   68    64    27 1
   69    64    46 1
   70    65     5 1
   71    65    10 1
   72    65    64 1
   73    65    14 1
   74    66    23 1
   75    67    23 1
   76    68    23 1
   77    69    22 1
   78    70    22 1
   79    71    22 1
   80    72    21 1
   81    73    21 1
   82    74    21 1
   83    75    20 1
   84    76    20 1
   85    77    20 1
   86    78    15 1
   87    79    15 1
   88    80    15 1
   89    81     8 1
   90    82     8 1
   91    83     8 1
   92    84     7 1
   93    85     7 1
   94    86     6 1
   95    87     6 1
   96    88     3 1
   97    89     3 1
   98    90     1 1
   99    91     1 1
  100    92    63 1
  101    93    63 1
  102    94    63 1
  103    95    62 1
  104    96    62 1
  105    97    62 1
  106    98    60 1
  107    99    60 1
  108   100    59 1
  109   101    59 1
  110   102    58 1
  111   103    58 1
  112   104    57 1
  113   105    57 1
  114   106    57 1
  115   107    55 1
  116   108    55 1
  117   109    54 1
  118   110    54 1
  119   111    53 1
  120   112    53 1
  121   113    19 1
  122   114    18 1
  123   115    17 1
  124   116     9 1
  125   117     2 1
  126   118    52 1
  127   119    52 1
  128   120    52 1
  129   121    51 1
  130   122    50 1
  131   123    50 1
  132   124    49 1
  133   125    49 1
  134   126    48 1
  135   127    48 1
  136   128    43 1
  137   129    43 1
  138   130    43 1
  139   131    39 1
  140   132    32 1
  141   133    31 1
  142   134    61 1
  143   135    56 1
  144   136    24 1
  145   137    24 1
  146   139   138 1
  147   140   139 1
  148   141   140 1
  149   142   140 1
  150   143   142 1
  151   144   138 1
  152   144   143 1
  153   145   144 1
  154   146   145 1
  155   147   146 1
  156   148   147 1
  157   149   148 1
  158   150   149 1
  159   151   150 1
  160   152   151 1
  161   153   152 1
  162   154   138 1
  163   155   138 1
  164   156   143 1
  165   157   147 1
  166   158   151 1
  167   160   159 1
  168   161   160 1
  169   162   161 1
  170   163   161 1
  171   164   163 1
  172   165   159 1
  173   165   164 1
  174   166   165 1
  175   167   166 1
  176   168   167 1
  177   169   168 1
  178   170   169 1
  179   171   170 1
  180   172   171 1
  181   173   172 1
  182   174   153 1
  183   174   173 1
  184   175   159 1
  185   176   159 1
  186   177   164 1
  187   178   168 1
  188   179   172 1
  189   180   179 1
  190   181   179 1
  191   182   179 1
  192   183   178 1
  193   184   178 1
  194   185   178 1
  195   186   177 1
  196   187   177 1
  197   188   177 1
  198   189   176 1
  199   190   176 1
  200   191   176 1
  201   192   175 1
  202   193   175 1
  203   194   175 1
  204   195   160 1
  205   196   160 1
  206   197   158 1
  207   198   158 1
  208   199   158 1
  209   200   157 1
  210   201   157 1
  211   202   157 1
  212   203   156 1
  213   204   156 1
  214   205   156 1
  215   206   155 1
  216   207   155 1
  217   208   155 1
  218   209   154 1
  219   210   154 1
  220   211   154 1
  221   212   141 1
  222   213   146 1
  223   214   145 1
  224   215   142 1
  225   216   142 1
  226   217   174 1
  227   218   173 1
  228   219   171 1
  229   220   170 1
  230   221   169 1
  231   222   140 1
  232   223   167 1
  233   224   166 1
  234   225   165 1
  235   226   163 1
  236   227   161 1
  237   228   139 1
  238   229   139 1
  239   230   153 1
  240   231   152 1
  241   232   150 1
  242   233   149 1
  243   234   148 1
  244   235   162 1
  245   65    153 1
  246   65    174 1
@<TRIPOS>SUBSTRUCTURE
      1 CLA               1 ****               0 ****  **** 
      2 LUT             138 ****               0 ****  **** 
