@<TRIPOS>MOLECULE
Cpptraj generated mol2 file.
  235   246     2     0     0
SMALL
USER_CHARGES


@<TRIPOS>ATOM
      1 CAA        77.2682   57.8991   33.9381 a2         1 CLA     -0.055900
      2 CAB        77.2134   60.9457   43.2967 c8         1 CLA     -0.148500
      3 CAC        70.4647   56.6624   42.3576 a2         1 CLA     -0.012600
      4 CAD        72.9228   55.4247   34.8858 ck         1 CLA      0.398800
      5 NA         76.1184   58.0947   37.4098 ns         1 CLA     -0.225500
      6 CBA        78.4927   57.9395   33.0570 a2         1 CLA     -0.135000
      7 CBB        78.2950   60.6447   44.0105 c0         1 CLA     -0.395200
      8 CBC        70.7370   55.1380   42.2257 a3         1 CLA     -0.037700
      9 CBD        74.3866   55.9727   34.5820 a1         1 CLA     -0.053900
     10 NB         75.9150   59.5337   40.0590 nm         1 CLA     -0.295700
     11 OBD        72.3102   54.7447   34.0105 o2         1 CLA     -0.494600
     12 CGA        79.1244   56.5903   32.6941 c4         1 CLA      0.827000
     13 CGD        75.3033   54.8074   34.1699 c4         1 CLA      0.655300
     14 ND         73.2671   57.2295   37.9039 nm         1 CLA     -0.291600
     15 CED        76.4840   52.8822   34.9875 a3         1 CLA      0.005400
     16 CHA        74.7633   56.7363   35.9421 cs         1 CLA     -0.123800
     17 CHB        77.8335   59.4653   38.5312 aa         1 CLA     -0.291900
     18 CHC        74.4895   59.6199   42.0638 aa         1 CLA     -0.090400
     19 CHD        71.3985   57.0365   39.3768 aa         1 CLA     -0.052000
     20 CMA        79.6406   57.4180   37.0327 a3         1 CLA     -0.230700
     21 CMB        79.2346   61.1629   40.7515 a3         1 CLA     -0.180800
     22 CMC        72.5387   58.4321   44.0268 a3         1 CLA     -0.134000
     23 CMD        70.0484   55.3855   37.0145 a3         1 CLA     -0.141100
     24 C1         80.0337   54.5436   33.5928 a2         1 CLA      0.023000
     25 C1A        75.9927   57.4161   36.2580 ac         1 CLA     -0.015100
     26 C1B        77.2166   59.8829   39.7340 cr         1 CLA      0.054700
     27 C1C        73.3622   58.8817   41.6732 cn         1 CLA     -0.005600
     28 C1D        71.9774   56.8276   38.1081 ap         1 CLA     -0.047300
     29 O1A        79.5127   56.2632   31.5845 o2         1 CLA     -0.610800
     30 O1D        75.7614   54.5944   33.0107 o2         1 CLA     -0.558200
     31 C2         80.6080   54.0405   34.8948 c8         1 CLA     -0.325100
     32 C2A        77.3278   57.3420   35.4175 a1         1 CLA      0.098600
     33 C2B        77.8697   60.5605   40.8393 cb         1 CLA      0.088500
     34 C2C        72.3802   58.3370   42.5771 cb         1 CLA      0.053700
     35 C2D        71.4331   56.0209   37.0293 cb         1 CLA      0.058900
     36 O2A        79.3668   55.8562   33.8096 o1         1 CLA     -0.437200
     37 O2D        75.6803   54.0687   35.2428 o1         1 CLA     -0.357600
     38 C3         81.1882   52.8212   35.0717 c5         1 CLA      0.031200
     39 C3A        78.3512   58.0515   36.4228 a1         1 CLA      0.166800
     40 C3B        76.9995   60.5257   41.9092 cb         1 CLA      0.035000
     41 C3C        71.5289   57.5601   41.7962 cb         1 CLA     -0.089900
     42 C3D        72.5448   55.9525   36.1592 cb         1 CLA     -0.035900
     43 C4         80.3860   51.5280   35.1591 a3         1 CLA     -0.053300
     44 C4A        77.3985   58.5798   37.5185 ac         1 CLA      0.001800
     45 C4B        75.6725   59.9205   41.3779 cn         1 CLA     -0.020900
     46 C4C        71.9572   57.6652   40.4536 cr         1 CLA     -0.044400
     47 C4D        73.6337   56.7369   36.7333 c6         1 CLA     -0.046000
     48 C5         82.7199   52.6892   34.9808 a2         1 CLA     -0.070400
     49 C6         83.6352   53.8934   35.4609 a2         1 CLA      0.043900
     50 C7         83.5861   54.2063   36.9987 a2         1 CLA     -0.150000
     51 C8         83.7636   55.6963   37.2734 a1         1 CLA      0.064200
     52 C9         84.9852   56.2092   36.5928 a3         1 CLA     -0.259300
     53 C10        83.8698   56.0273   38.7832 a2         1 CLA     -0.071900
     54 C11        82.5045   56.2009   39.4758 a2         1 CLA      0.014500
     55 C12        82.6015   56.4596   40.9555 a2         1 CLA     -0.112100
     56 C13        81.2140   56.6255   41.7095 a1         1 CLA      0.089200
     57 C14        80.1897   57.5631   41.0416 a3         1 CLA     -0.239100
     58 C15        81.3948   57.0392   43.1675 a2         1 CLA     -0.102200
     59 C16        82.0064   58.4554   43.4765 a2         1 CLA      0.023900
     60 C17        82.3133   58.8587   44.9291 a2         1 CLA     -0.105700
     61 C18        82.9476   60.2639   45.2342 a1         1 CLA      0.206800
     62 C19        84.4907   60.4402   44.9396 a3         1 CLA     -0.280100
     63 C20        82.1690   61.3962   44.5668 a3         1 CLA     -0.280100
     64 NC         73.0935   58.4052   40.4645 nx         1 CLA     -0.309200
     65 MG         74.4936   58.4082   38.9507 mg         1 CLA      0.895000
     66 HMD3       69.6939   55.2861   38.0384 dc         1 CLA      0.064300
     67 HMD2       69.3772   55.9852   36.3759 dc         1 CLA      0.064300
     68 HMD1       70.1211   54.3752   36.6171 dc         1 CLA      0.064300
     69 HMC3       71.9947   57.6213   44.5540 dc         1 CLA      0.052100
     70 HMC2       73.6250   58.3198   44.1949 dc         1 CLA      0.052100
     71 HMC1       72.2459   59.4639   44.2477 dc         1 CLA      0.052100
     72 HMB3       79.6261   61.0775   39.7644 dc         1 CLA      0.063600
     73 HMB2       79.1378   62.2356   41.0779 dc         1 CLA      0.063600
     74 HMB1       79.9392   60.7229   41.4562 dc         1 CLA      0.063600
     75 HMA3       79.4438   56.8375   37.9460 dc         1 CLA      0.058300
     76 HMA2       80.1867   56.7692   36.2655 dc         1 CLA      0.058300
     77 HMA1       80.3423   58.1676   37.3998 dc         1 CLA      0.058300
     78 HED3       77.3957   53.1513   34.4318 dc         1 CLA      0.079300
     79 HED2       76.8848   52.4271   35.9279 dc         1 CLA      0.079300
     80 HED1       75.8667   52.1820   34.4191 dc         1 CLA      0.079300
     81 HBC3       70.7357   54.7675   41.1832 dc         1 CLA      0.016300
     82 HBC2       71.7120   54.9208   42.6136 dc         1 CLA      0.016300
     83 HBC1       70.0413   54.4949   42.7429 dc         1 CLA      0.016300
     84 HBB2       78.4090   60.9946   45.0289 da         1 CLA      0.183000
     85 HBB1       79.0998   59.9864   43.6181 da         1 CLA      0.183000
     86 HBA2       78.1432   58.4349   32.1211 dc         1 CLA      0.029400
     87 HBA1       79.3101   58.5719   33.4062 dc         1 CLA      0.029400
     88 HAC2       70.3111   56.7976   43.4353 dc         1 CLA      0.029300
     89 HAC1       69.5491   56.8473   41.9003 dc         1 CLA      0.029300
     90 HAA2       76.5837   57.2573   33.4393 dc         1 CLA      0.028700
     91 HAA1       76.8703   58.9661   33.9092 dc         1 CLA      0.028700
     92 H203       82.5958   62.3179   44.9140 dc         1 CLA      0.065600
     93 H202       81.9904   61.3716   43.4922 dc         1 CLA      0.065600
     94 H201       81.1420   61.4033   44.9900 dc         1 CLA      0.065600
     95 H193       84.6635   60.9630   43.9511 dc         1 CLA      0.065600
     96 H192       84.8985   60.9668   45.8145 dc         1 CLA      0.065600
     97 H191       84.8877   59.4214   44.9402 dc         1 CLA      0.065600
     98 H172       81.3567   58.6942   45.4255 dc         1 CLA      0.027600
     99 H171       82.9610   58.0492   45.2839 dc         1 CLA      0.027600
    100 H162       82.9657   58.6119   42.8646 dc         1 CLA      0.002900
    101 H161       81.3299   59.2059   43.1202 dc         1 CLA      0.002900
    102 H152       80.3788   57.0550   43.5976 dc         1 CLA      0.029100
    103 H151       82.0133   56.3344   43.7631 dc         1 CLA      0.029100
    104 H143       79.6397   56.9159   40.3319 dc         1 CLA      0.063600
    105 H142       79.5026   57.8244   41.7608 dc         1 CLA      0.063600
    106 H141       80.5870   58.4974   40.6858 dc         1 CLA      0.063600
    107 H122       83.0493   55.5721   41.3914 dc         1 CLA      0.032500
    108 H121       83.3580   57.2013   41.1680 dc         1 CLA      0.032500
    109 H112       81.9313   56.9191   38.9014 dc         1 CLA      0.006600
    110 H111       82.0362   55.1928   39.4536 dc         1 CLA      0.006600
    111 H102       84.4025   55.2318   39.2984 dc         1 CLA      0.024100
    112 H101       84.4854   56.9825   38.9326 dc         1 CLA      0.024100
    113 HHD        70.4520   56.5939   39.6993 da         1 CLA      0.174300
    114 HHC        74.4691   59.9208   43.1224 da         1 CLA      0.136800
    115 HHB        78.8333   59.7176   38.3246 da         1 CLA      0.138300
    116 HBD        74.2879   56.6728   33.7546 dc         1 CLA      0.107700
    117 HAB        76.5036   61.6378   43.7558 da         1 CLA      0.155200
    118 H93        85.1934   57.2857   36.7376 dc         1 CLA      0.069500
    119 H92        85.8215   55.6665   37.0975 dc         1 CLA      0.069500
    120 H91        85.0257   56.0589   35.5436 dc         1 CLA      0.069500
    121 H8         82.8988   56.0750   36.6948 dc         1 CLA      0.029300
    122 H72        82.8037   53.6477   37.4768 dc         1 CLA      0.044400
    123 H71        84.4489   53.6735   37.3666 dc         1 CLA      0.044400
    124 H62        84.6863   53.7098   35.3372 dc         1 CLA      0.015600
    125 H61        83.3224   54.7610   34.8724 dc         1 CLA      0.015600
    126 H52        83.0228   51.8110   35.5365 dc         1 CLA      0.033200
    127 H51        83.1884   52.5573   33.9735 dc         1 CLA      0.033200
    128 H43        80.6462   50.9101   34.3407 dc         1 CLA      0.037000
    129 H42        80.5755   51.0750   36.1087 dc         1 CLA      0.037000
    130 H41        79.3321   51.7766   35.0769 dc         1 CLA      0.037000
    131 H3A        78.7040   58.8552   35.8599 dc         1 CLA      0.041100
    132 H2A        77.6495   56.3602   35.3547 dc         1 CLA      0.083100
    133 H2         80.4858   54.6432   35.7626 da         1 CLA      0.180900
    134 H18        82.7685   60.1882   46.2989 dc         1 CLA     -0.003900
    135 H13        80.8220   55.5706   41.7573 dc         1 CLA      0.019700
    136 H12        79.3785   53.7738   33.1951 dc         1 CLA      0.120400
    137 H11        80.8346   54.6642   32.9316 dc         1 CLA      0.120400
    138 C1         67.4406   60.3775   48.8714 Z1         2 LUT      0.509236
    139 C2         67.0119   61.1125   50.1306 Z2         2 LUT     -0.434695
    140 C3         65.5587   61.4435   50.2302 Z3         2 LUT      0.437453
    141 O3         65.5340   62.0796   51.4675 S1         2 LUT     -0.547129
    142 C4         65.2702   62.4169   49.1203 Z4         2 LUT     -0.468603
    143 C5         65.8726   61.9986   47.7624 Z5         2 LUT      0.279246
    144 C6         66.7314   60.9658   47.5394 Z6         2 LUT     -0.305473
    145 C7         67.4396   60.8866   46.2988 Z7         2 LUT      0.069402
    146 C8         68.5858   61.5003   45.9044 Z8         2 LUT     -0.191631
    147 C9         69.2689   61.2578   44.5725 Z9         2 LUT      0.196698
    148 C10        70.4117   61.9633   44.2689 Y1         2 LUT     -0.208611
    149 C11        71.0249   61.9346   43.0101 Y2         2 LUT      0.030784
    150 C12        72.2243   62.4952   42.8134 Y3         2 LUT     -0.220316
    151 C13        72.8389   62.6591   41.5110 Y4         2 LUT      0.215937
    152 C14        73.9998   63.3323   41.4837 Y5         2 LUT     -0.185793
    153 C15        75.0565   63.4720   40.4500 Y6         2 LUT     -0.057835
    154 C16        67.0200   58.8991   49.1642 Y7         2 LUT     -0.405615
    155 C17        68.9836   60.2988   48.8767 Y7         2 LUT     -0.405615
    156 C18        65.5424   63.0123   46.6899 Y9         2 LUT     -0.369639
    157 C19        68.5567   60.2209   43.6819 W1         2 LUT     -0.333362
    158 C20        72.1936   61.9765   40.3725 W2         2 LUT     -0.323439
    159 C21        86.4165   64.4948   34.1966 Z1         2 LUT      0.406104
    160 C22        87.0044   63.7908   33.0194 Z2         2 LUT     -0.404965
    161 C23        86.8937   64.6142   31.7002 Z3         2 LUT      0.391255
    162 O23        87.2452   63.6992   30.6755 S1         2 LUT     -0.528210
    163 C24        85.5533   65.3354   31.6467 W6         2 LUT     -0.258361
    164 C25        84.6922   65.5096   32.6209 Z5         2 LUT      0.133546
    165 C26        84.9127   64.9627   33.9653 W8         2 LUT     -0.147008
    166 C27        84.2653   65.6827   35.1087 Z7         2 LUT      0.023843
    167 C28        83.0884   65.3120   35.6621 Z8         2 LUT     -0.216987
    168 C29        82.4945   65.8434   36.8659 Z9         2 LUT      0.206524
    169 C30        81.4930   65.0386   37.3816 Y1         2 LUT     -0.215556
    170 C31        80.7052   65.2275   38.5721 Y2         2 LUT      0.025142
    171 C32        79.5537   64.4640   38.7799 Y3         2 LUT     -0.212209
    172 C33        78.4685   64.7465   39.6948 Y4         2 LUT      0.240937
    173 C34        77.3107   64.0614   39.6118 Y5         2 LUT     -0.218862
    174 C35        76.1699   64.1559   40.5800 Y6         2 LUT     -0.023547
    175 C36        87.2520   65.7308   34.4904 Y7         2 LUT     -0.393485
    176 C37        86.2599   63.5534   35.4297 Y7         2 LUT     -0.393485
    177 C38        83.3649   66.1904   32.3247 Y9         2 LUT     -0.387526
    178 C39        82.9948   67.0910   37.5710 W1         2 LUT     -0.322618
    179 C40        78.6839   65.9166   40.6240 W2         2 LUT     -0.358472
    180 H403       78.6113   66.9089   40.0923 R7         2 LUT      0.097720
    181 H402       77.9179   66.0083   41.3960 R7         2 LUT      0.097720
    182 H401       79.6568   65.8516   41.1953 R7         2 LUT      0.097720
    183 H393       83.5559   66.9541   38.5189 R4         2 LUT      0.082505
    184 H392       83.5061   67.8472   36.9549 R4         2 LUT      0.082505
    185 H391       82.0936   67.5884   37.9033 R4         2 LUT      0.082505
    186 H383       83.4458   67.2693   32.6104 R1         2 LUT      0.104030
    187 H382       82.9736   66.1933   31.2190 R1         2 LUT      0.104030
    188 H381       82.5700   65.7356   32.9246 R1         2 LUT      0.104030
    189 H373       85.6119   62.7433   35.1347 T4         2 LUT      0.089537
    190 H372       87.2436   63.2147   35.7136 T4         2 LUT      0.089537
    191 H371       85.9789   64.0716   36.3970 T4         2 LUT      0.089537
    192 H363       88.2069   65.5316   34.7906 T4         2 LUT      0.089537
    193 H362       87.4522   66.4664   33.6179 T4         2 LUT      0.089537
    194 H361       86.8770   66.3550   35.2738 T4         2 LUT      0.089537
    195 H222       88.0537   63.4915   33.2064 U2         2 LUT      0.127376
    196 H221       86.4930   62.8094   32.7983 U2         2 LUT      0.127376
    197 H203       72.6764   62.1470   39.3880 R7         2 LUT      0.087068
    198 H202       71.9736   60.8877   40.4208 R7         2 LUT      0.087068
    199 H201       71.2401   62.4240   40.1973 R7         2 LUT      0.087068
    200 H193       68.2327   59.2528   44.1280 R4         2 LUT      0.089716
    201 H192       67.7190   60.5871   43.0843 R4         2 LUT      0.089716
    202 H191       69.3416   59.7829   43.0140 R4         2 LUT      0.089716
    203 H183       66.2597   63.8585   46.7896 R1         2 LUT      0.094572
    204 H182       65.6028   62.6281   45.6463 R1         2 LUT      0.094572
    205 H181       64.5318   63.4145   46.8464 R1         2 LUT      0.094572
    206 H173       69.4115   61.3363   48.8741 T4         2 LUT      0.093752
    207 H172       69.4693   59.7556   49.7601 T4         2 LUT      0.093752
    208 H171       69.3034   59.7851   47.8636 T4         2 LUT      0.093752
    209 H163       67.4521   58.4996   50.0818 T4         2 LUT      0.093752
    210 H162       65.9144   58.8104   49.2701 T4         2 LUT      0.093752
    211 H161       67.4269   58.3449   48.2689 T4         2 LUT      0.093752
    212 HO3        65.3332   61.4803   52.2152 Q1         2 LUT      0.300121
    213 H8         69.0312   62.3171   46.5633 U7         2 LUT      0.080784
    214 H7         67.0043   60.1074   45.6322 U6         2 LUT      0.042190
    215 H42        64.1395   62.5447   48.9955 U5         2 LUT      0.145166
    216 H41        65.5684   63.4453   49.4865 U5         2 LUT      0.145166
    217 H35        76.3049   64.5940   41.5732 T3         2 LUT      0.077919
    218 H34        77.0910   63.4496   38.7137 T2         2 LUT      0.073626
    219 H32        79.3157   63.6853   38.0710 T1         2 LUT      0.092510
    220 H31        80.8460   66.0343   39.2442 U9         2 LUT      0.070048
    221 H30        81.1259   64.1665   36.7890 U8         2 LUT      0.085442
    222 H3         64.8285   60.5849   50.2097 U3         2 LUT     -0.031596
    223 H28        82.5531   64.4683   35.1429 U7         2 LUT      0.084728
    224 H27        84.7463   66.4992   35.6066 U6         2 LUT      0.087291
    225 H26        84.3228   64.0849   33.7738 Q6         2 LUT      0.075325
    226 H24        85.2201   65.8386   30.6767 Q5         2 LUT      0.094482
    227 H23        87.7314   65.3605   31.7725 U3         2 LUT     -0.024869
    228 H22        67.3102   60.4382   50.9790 U2         2 LUT      0.127376
    229 H21        67.5849   62.0456   50.4074 U2         2 LUT      0.127376
    230 H15        74.9496   62.8694   39.4350 T3         2 LUT      0.093200
    231 H14        74.4041   63.7600   42.3922 T2         2 LUT      0.068865
    232 H12        72.7193   62.9033   43.6866 T1         2 LUT      0.095507
    233 H11        70.5075   61.4750   42.1626 U9         2 LUT      0.068930
    234 H10        70.7320   62.7736   44.9837 U8         2 LUT      0.083911
    235 H1         87.5406   64.0893   29.8020 Q1         2 LUT      0.297311
@<TRIPOS>BOND
    1     6     1 1
    2     7     2 1
    3     8     3 1
    4     9     4 1
    5    11     4 1
    6    12     6 1
    7    13     9 1
    8    16     9 1
    9    25     5 1
   10    25    16 1
   11    26    10 1
   12    26    17 1
   13    27    18 1
   14    28    14 1
   15    28    19 1
   16    29    12 1
   17    30    13 1
   18    31    24 1
   19    32     1 1
   20    32    25 1
   21    33    21 1
   22    33    26 1
   23    34    22 1
   24    34    27 1
   25    35    23 1
   26    35    28 1
   27    36    12 1
   28    36    24 1
   29    37    13 1
   30    37    15 1
   31    38    31 1
   32    39    20 1
   33    39    32 1
   34    40     2 1
   35    40    33 1
   36    41     3 1
   37    41    34 1
   38    42     4 1
   39    42    35 1
   40    43    38 1
   41    44     5 1
   42    44    17 1
   43    44    39 1
   44    45    10 1
   45    45    18 1
   46    45    40 1
   47    46    19 1
   48    46    41 1
   49    47    14 1
   50    47    16 1
   51    47    42 1
   52    48    38 1
   53    49    48 1
   54    50    49 1
   55    51    50 1
   56    52    51 1
   57    53    51 1
   58    54    53 1
   59    55    54 1
   60    56    55 1
   61    57    56 1
   62    58    56 1
   63    59    58 1
   64    60    59 1
   65    61    60 1
   66    62    61 1
   67    63    61 1
   68    64    27 1
   69    64    46 1
   70    65     5 1
   71    65    10 1
   72    65    64 1
   73    65    14 1
   74    66    23 1
   75    67    23 1
   76    68    23 1
   77    69    22 1
   78    70    22 1
   79    71    22 1
   80    72    21 1
   81    73    21 1
   82    74    21 1
   83    75    20 1
   84    76    20 1
   85    77    20 1
   86    78    15 1
   87    79    15 1
   88    80    15 1
   89    81     8 1
   90    82     8 1
   91    83     8 1
   92    84     7 1
   93    85     7 1
   94    86     6 1
   95    87     6 1
   96    88     3 1
   97    89     3 1
   98    90     1 1
   99    91     1 1
  100    92    63 1
  101    93    63 1
  102    94    63 1
  103    95    62 1
  104    96    62 1
  105    97    62 1
  106    98    60 1
  107    99    60 1
  108   100    59 1
  109   101    59 1
  110   102    58 1
  111   103    58 1
  112   104    57 1
  113   105    57 1
  114   106    57 1
  115   107    55 1
  116   108    55 1
  117   109    54 1
  118   110    54 1
  119   111    53 1
  120   112    53 1
  121   113    19 1
  122   114    18 1
  123   115    17 1
  124   116     9 1
  125   117     2 1
  126   118    52 1
  127   119    52 1
  128   120    52 1
  129   121    51 1
  130   122    50 1
  131   123    50 1
  132   124    49 1
  133   125    49 1
  134   126    48 1
  135   127    48 1
  136   128    43 1
  137   129    43 1
  138   130    43 1
  139   131    39 1
  140   132    32 1
  141   133    31 1
  142   134    61 1
  143   135    56 1
  144   136    24 1
  145   137    24 1
  146   139   138 1
  147   140   139 1
  148   141   140 1
  149   142   140 1
  150   143   142 1
  151   144   138 1
  152   144   143 1
  153   145   144 1
  154   146   145 1
  155   147   146 1
  156   148   147 1
  157   149   148 1
  158   150   149 1
  159   151   150 1
  160   152   151 1
  161   153   152 1
  162   154   138 1
  163   155   138 1
  164   156   143 1
  165   157   147 1
  166   158   151 1
  167   160   159 1
  168   161   160 1
  169   162   161 1
  170   163   161 1
  171   164   163 1
  172   165   159 1
  173   165   164 1
  174   166   165 1
  175   167   166 1
  176   168   167 1
  177   169   168 1
  178   170   169 1
  179   171   170 1
  180   172   171 1
  181   173   172 1
  182   174   153 1
  183   174   173 1
  184   175   159 1
  185   176   159 1
  186   177   164 1
  187   178   168 1
  188   179   172 1
  189   180   179 1
  190   181   179 1
  191   182   179 1
  192   183   178 1
  193   184   178 1
  194   185   178 1
  195   186   177 1
  196   187   177 1
  197   188   177 1
  198   189   176 1
  199   190   176 1
  200   191   176 1
  201   192   175 1
  202   193   175 1
  203   194   175 1
  204   195   160 1
  205   196   160 1
  206   197   158 1
  207   198   158 1
  208   199   158 1
  209   200   157 1
  210   201   157 1
  211   202   157 1
  212   203   156 1
  213   204   156 1
  214   205   156 1
  215   206   155 1
  216   207   155 1
  217   208   155 1
  218   209   154 1
  219   210   154 1
  220   211   154 1
  221   212   141 1
  222   213   146 1
  223   214   145 1
  224   215   142 1
  225   216   142 1
  226   217   174 1
  227   218   173 1
  228   219   171 1
  229   220   170 1
  230   221   169 1
  231   222   140 1
  232   223   167 1
  233   224   166 1
  234   225   165 1
  235   226   163 1
  236   227   161 1
  237   228   139 1
  238   229   139 1
  239   230   153 1
  240   231   152 1
  241   232   150 1
  242   233   149 1
  243   234   148 1
  244   235   162 1
  245   65    153 1
  246   65    174 1
@<TRIPOS>SUBSTRUCTURE
      1 CLA               1 ****               0 ****  **** 
      2 LUT             138 ****               0 ****  **** 
