@<TRIPOS>MOLECULE
Cpptraj generated mol2 file.
  235   246     2     0     0
SMALL
USER_CHARGES


@<TRIPOS>ATOM
      1 CAA        78.9515   59.6043   34.0371 a2         1 CLA     -0.055900
      2 CAB        78.8101   62.1832   43.1440 c8         1 CLA     -0.148500
      3 CAC        72.0425   57.9036   42.4404 a2         1 CLA     -0.012600
      4 CAD        74.5839   57.0182   34.6013 ck         1 CLA      0.398800
      5 NA         77.9128   59.2340   37.3121 ns         1 CLA     -0.225500
      6 CBA        80.1478   59.5591   33.0654 a2         1 CLA     -0.135000
      7 CBB        79.9791   62.4181   43.7960 c0         1 CLA     -0.395200
      8 CBC        72.0031   56.4323   42.1936 a3         1 CLA     -0.037700
      9 CBD        76.0356   57.5727   34.3680 a1         1 CLA     -0.053900
     10 NB         77.8015   60.3277   40.0575 nm         1 CLA     -0.295700
     11 OBD        73.9461   56.4975   33.6892 o2         1 CLA     -0.494600
     12 CGA        80.6469   58.2317   32.5162 c4         1 CLA      0.827000
     13 CGD        76.9247   56.3872   33.8354 c4         1 CLA      0.655300
     14 ND         75.0289   58.2698   37.8665 nm         1 CLA     -0.291600
     15 CED        78.1014   54.3067   34.3104 a3         1 CLA      0.005400
     16 CHA        76.3826   58.1317   35.7236 cs         1 CLA     -0.123800
     17 CHB        79.7155   60.2723   38.4750 aa         1 CLA     -0.291900
     18 CHC        76.5069   60.3655   42.1668 aa         1 CLA     -0.090400
     19 CHD        73.2001   58.0794   39.4258 aa         1 CLA     -0.052000
     20 CMA        81.1920   58.0251   36.6473 a3         1 CLA     -0.230700
     21 CMB        81.0139   62.0476   40.5978 a3         1 CLA     -0.180800
     22 CMC        74.2912   59.3880   44.1453 a3         1 CLA     -0.134000
     23 CMD        71.7438   56.7585   36.7946 a3         1 CLA     -0.141100
     24 C1         81.5976   56.0898   33.0923 a2         1 CLA      0.023000
     25 C1A        77.6456   58.6236   36.1185 ac         1 CLA     -0.015100
     26 C1B        79.0848   60.6491   39.7081 cr         1 CLA      0.054700
     27 C1C        75.4099   59.5689   41.7770 cn         1 CLA     -0.005600
     28 C1D        73.7397   57.9086   38.1158 ap         1 CLA     -0.047300
     29 O1A        80.7499   57.9594   31.3164 o2         1 CLA     -0.610800
     30 O1D        77.6999   56.5205   32.8872 o2         1 CLA     -0.558200
     31 C2         82.2066   55.3699   34.2557 c8         1 CLA     -0.325100
     32 C2A        79.0028   58.6328   35.2386 a1         1 CLA      0.098600
     33 C2B        79.6657   61.4554   40.7962 cb         1 CLA      0.088500
     34 C2C        74.2903   59.1982   42.6784 cb         1 CLA      0.053700
     35 C2D        73.1754   57.2433   36.8963 cb         1 CLA      0.058900
     36 O2A        81.1142   57.4067   33.4936 o1         1 CLA     -0.437200
     37 O2D        76.9463   55.3041   34.5876 o1         1 CLA     -0.357600
     38 C3         83.2211   54.4553   34.1031 c5         1 CLA      0.031200
     39 C3A        80.0838   59.0541   36.2717 a1         1 CLA      0.166800
     40 C3B        78.7154   61.4647   41.8148 cb         1 CLA      0.035000
     41 C3C        73.3274   58.5775   41.9180 cb         1 CLA     -0.089900
     42 C3D        74.1928   57.3398   36.0121 cb         1 CLA     -0.035900
     43 C4         82.9339   53.0131   33.7421 a3         1 CLA     -0.053300
     44 C4A        79.1788   59.5443   37.4174 ac         1 CLA      0.001800
     45 C4B        77.5883   60.7057   41.4079 cn         1 CLA     -0.020900
     46 C4C        73.8813   58.5918   40.5602 cr         1 CLA     -0.044400
     47 C4D        75.2633   57.9900   36.5852 c6         1 CLA     -0.046000
     48 C5         84.6857   54.8867   34.0899 a2         1 CLA     -0.070400
     49 C6         85.1571   55.9376   35.1241 a2         1 CLA      0.043900
     50 C7         85.0468   55.2870   36.5182 a2         1 CLA     -0.150000
     51 C8         85.2166   56.4109   37.5330 a1         1 CLA      0.064200
     52 C9         86.7386   56.7800   37.7324 a3         1 CLA     -0.259300
     53 C10        84.4869   55.9455   38.8884 a2         1 CLA     -0.071900
     54 C11        84.3826   57.0468   40.0162 a2         1 CLA      0.014500
     55 C12        83.4667   56.6105   41.1408 a2         1 CLA     -0.112100
     56 C13        82.9025   57.7749   42.0957 a1         1 CLA      0.089200
     57 C14        83.8276   58.9657   42.3354 a3         1 CLA     -0.239100
     58 C15        82.3729   57.1773   43.4160 a2         1 CLA     -0.102200
     59 C16        83.3833   56.5544   44.3658 a2         1 CLA      0.023900
     60 C17        82.8839   56.3666   45.7949 a2         1 CLA     -0.105700
     61 C18        83.9276   55.7528   46.7142 a1         1 CLA      0.206800
     62 C19        85.2008   56.5936   47.1275 a3         1 CLA     -0.280100
     63 C20        83.2212   55.2931   48.0251 a3         1 CLA     -0.280100
     64 NC         75.1566   59.2102   40.5200 nx         1 CLA     -0.309200
     65 MG         76.4617   59.3784   38.8930 mg         1 CLA      0.895000
     66 HMD3       70.9976   57.5493   36.6160 dc         1 CLA      0.064300
     67 HMD2       71.7381   56.0996   35.9140 dc         1 CLA      0.064300
     68 HMD1       71.4743   56.1445   37.6514 dc         1 CLA      0.064300
     69 HMC3       74.3540   58.3742   44.5776 dc         1 CLA      0.052100
     70 HMC2       75.1733   59.8725   44.4286 dc         1 CLA      0.052100
     71 HMC1       73.3589   59.8606   44.5731 dc         1 CLA      0.052100
     72 HMB3       81.0075   63.0309   41.0494 dc         1 CLA      0.063600
     73 HMB2       81.7406   61.3924   41.0741 dc         1 CLA      0.063600
     74 HMB1       81.1752   62.1093   39.4996 dc         1 CLA      0.063600
     75 HMA3       80.8801   56.9935   36.8988 dc         1 CLA      0.058300
     76 HMA2       81.9069   58.0252   35.8069 dc         1 CLA      0.058300
     77 HMA1       81.7062   58.3382   37.5151 dc         1 CLA      0.058300
     78 HED3       77.8496   53.8939   33.3538 dc         1 CLA      0.079300
     79 HED2       79.1527   54.5579   34.2925 dc         1 CLA      0.079300
     80 HED1       77.7753   53.5869   35.0615 dc         1 CLA      0.079300
     81 HBC3       72.8325   55.9627   42.7690 dc         1 CLA      0.016300
     82 HBC2       71.0452   55.9276   42.5828 dc         1 CLA      0.016300
     83 HBC1       72.1264   56.2600   41.1405 dc         1 CLA      0.016300
     84 HBB2       80.0121   63.0292   44.7065 da         1 CLA      0.183000
     85 HBB1       80.9356   62.0302   43.4588 da         1 CLA      0.183000
     86 HBA2       79.6750   60.1034   32.1955 dc         1 CLA      0.029400
     87 HBA1       80.8992   60.1537   33.4852 dc         1 CLA      0.029400
     88 HAC2       71.8663   57.9890   43.5337 dc         1 CLA      0.029300
     89 HAC1       71.1829   58.2327   41.9278 dc         1 CLA      0.029300
     90 HAA2       78.0492   59.3272   33.5002 dc         1 CLA      0.028700
     91 HAA1       78.7021   60.5610   34.3595 dc         1 CLA      0.028700
     92 H203       84.0056   54.9020   48.7946 dc         1 CLA      0.065600
     93 H202       82.6758   56.0886   48.4622 dc         1 CLA      0.065600
     94 H201       82.5025   54.4604   47.8612 dc         1 CLA      0.065600
     95 H193       85.8580   56.7754   46.3340 dc         1 CLA      0.065600
     96 H192       84.8643   57.5408   47.5745 dc         1 CLA      0.065600
     97 H191       85.8234   56.1145   47.8441 dc         1 CLA      0.065600
     98 H172       82.5662   57.3808   46.1273 dc         1 CLA      0.027600
     99 H171       82.0571   55.6801   45.7098 dc         1 CLA      0.027600
    100 H162       83.5395   55.5632   43.9653 dc         1 CLA      0.002900
    101 H161       84.3399   57.0132   44.3445 dc         1 CLA      0.002900
    102 H152       81.9574   58.0088   43.9149 dc         1 CLA      0.029100
    103 H151       81.6175   56.3898   43.3284 dc         1 CLA      0.029100
    104 H143       84.7976   58.4907   42.4553 dc         1 CLA      0.063600
    105 H142       83.9983   59.6276   41.4807 dc         1 CLA      0.063600
    106 H141       83.3733   59.4948   43.2492 dc         1 CLA      0.063600
    107 H122       82.5194   56.2186   40.6551 dc         1 CLA      0.032500
    108 H121       83.8128   55.7844   41.7082 dc         1 CLA      0.032500
    109 H112       85.3534   57.2709   40.4345 dc         1 CLA      0.006600
    110 H111       84.0356   57.8463   39.5182 dc         1 CLA      0.006600
    111 H102       83.5458   55.5396   38.5788 dc         1 CLA      0.024100
    112 H101       85.1353   55.2065   39.3641 dc         1 CLA      0.024100
    113 HHD        72.1420   57.9542   39.4526 da         1 CLA      0.174300
    114 HHC        76.5626   60.7036   43.1809 da         1 CLA      0.136800
    115 HHB        80.8175   60.4436   38.2983 da         1 CLA      0.138300
    116 HBD        76.0546   58.2437   33.4884 dc         1 CLA      0.107700
    117 HAB        77.8824   62.5083   43.6047 da         1 CLA      0.155200
    118 H93        87.2784   56.7132   36.7734 dc         1 CLA      0.069500
    119 H92        86.8960   57.7450   38.2030 dc         1 CLA      0.069500
    120 H91        87.1506   56.0542   38.3987 dc         1 CLA      0.069500
    121 H8         84.5240   57.1644   37.2509 dc         1 CLA      0.029300
    122 H72        84.0566   54.9176   36.6592 dc         1 CLA      0.044400
    123 H71        85.6734   54.3810   36.7220 dc         1 CLA      0.044400
    124 H62        86.2081   56.0770   34.8937 dc         1 CLA      0.015600
    125 H61        84.6181   56.8593   35.0559 dc         1 CLA      0.015600
    126 H52        85.2153   53.9129   34.2260 dc         1 CLA      0.033200
    127 H51        84.8883   55.1688   33.0622 dc         1 CLA      0.033200
    128 H43        83.4938   52.3149   34.3111 dc         1 CLA      0.037000
    129 H42        81.8354   52.7869   33.8245 dc         1 CLA      0.037000
    130 H41        83.2281   52.8918   32.6937 dc         1 CLA      0.037000
    131 H3A        80.5215   59.9381   35.8156 dc         1 CLA      0.041100
    132 H2A        79.1720   57.6116   34.8516 dc         1 CLA      0.083100
    133 H2         81.7977   55.4966   35.2126 da         1 CLA      0.180900
    134 H18        84.1873   54.8332   46.2575 dc         1 CLA     -0.003900
    135 H13        82.0365   58.2198   41.6395 dc         1 CLA      0.019700
    136 H12        80.7593   55.5972   32.5867 dc         1 CLA      0.120400
    137 H11        82.3581   56.0817   32.3646 dc         1 CLA      0.120400
    138 C1         68.7284   60.9698   49.7730 Z1         2 LUT      0.509236
    139 C2         68.3890   61.6315   51.1106 Z2         2 LUT     -0.434695
    140 C3         66.8336   61.9165   51.2503 Z3         2 LUT      0.437453
    141 O3         66.6774   62.4384   52.5321 S1         2 LUT     -0.547129
    142 C4         66.4629   62.9673   50.2327 Z4         2 LUT     -0.468603
    143 C5         67.0644   62.6573   48.8397 Z5         2 LUT      0.279246
    144 C6         67.9536   61.6742   48.6313 Z6         2 LUT     -0.305473
    145 C7         68.5053   61.3114   47.2678 Z7         2 LUT      0.069402
    146 C8         69.4692   62.0096   46.6004 Z8         2 LUT     -0.191631
    147 C9         70.0817   61.8023   45.2936 Z9         2 LUT      0.196698
    148 C10        71.2815   62.5404   45.0896 Y1         2 LUT     -0.208611
    149 C11        72.0777   62.4815   43.9291 Y2         2 LUT      0.030784
    150 C12        73.1660   63.3479   43.6609 Y3         2 LUT     -0.220316
    151 C13        74.0399   63.2844   42.4630 Y4         2 LUT      0.215937
    152 C14        75.1847   63.9841   42.4079 Y5         2 LUT     -0.185793
    153 C15        76.2191   64.1537   41.3490 Y6         2 LUT     -0.057835
    154 C16        68.1340   59.5130   49.8281 Y7         2 LUT     -0.405615
    155 C17        70.2011   60.9095   49.6005 Y7         2 LUT     -0.405615
    156 C18        66.4720   63.6766   47.8615 Y9         2 LUT     -0.369639
    157 C19        69.4973   60.7131   44.3931 W1         2 LUT     -0.333362
    158 C20        73.4735   62.6209   41.2673 W2         2 LUT     -0.323439
    159 C21        87.3102   66.2052   34.6729 Z1         2 LUT      0.406104
    160 C22        88.0578   65.8706   33.3415 Z2         2 LUT     -0.404965
    161 C23        88.0493   66.9700   32.2684 Z3         2 LUT      0.391255
    162 O23        88.7135   66.5777   31.0377 S1         2 LUT     -0.528210
    163 C24        86.6039   67.5231   32.0843 W6         2 LUT     -0.258361
    164 C25        85.6034   67.4248   33.0092 Z5         2 LUT      0.133546
    165 C26        85.8317   66.6642   34.2489 W8         2 LUT     -0.147008
    166 C27        84.9879   67.0583   35.4322 Z7         2 LUT      0.023843
    167 C28        84.1479   66.2930   36.1017 Z8         2 LUT     -0.216987
    168 C29        83.5065   66.5650   37.4260 Z9         2 LUT      0.206524
    169 C30        82.5017   65.8494   37.9269 Y1         2 LUT     -0.215556
    170 C31        81.6672   66.1254   39.0772 Y2         2 LUT      0.025142
    171 C32        80.4813   65.4536   39.3932 Y3         2 LUT     -0.212209
    172 C33        79.6524   65.5360   40.5470 Y4         2 LUT      0.240937
    173 C34        78.3860   64.9024   40.5732 Y5         2 LUT     -0.218862
    174 C35        77.4155   64.7842   41.5858 Y6         2 LUT     -0.023547
    175 C36        87.9033   67.4825   35.2933 Y7         2 LUT     -0.393485
    176 C37        87.3944   65.0363   35.6725 Y7         2 LUT     -0.393485
    177 C38        84.3276   68.2117   32.7664 Y9         2 LUT     -0.387526
    178 C39        84.0473   67.7145   38.2861 W1         2 LUT     -0.322618
    179 C40        80.1322   66.4327   41.6451 W2         2 LUT     -0.358472
    180 H403       81.0361   66.0020   41.9977 R7         2 LUT      0.097720
    181 H402       80.2776   67.4815   41.2406 R7         2 LUT      0.097720
    182 H401       79.4493   66.5185   42.5510 R7         2 LUT      0.097720
    183 H393       83.9313   67.4368   39.2454 R4         2 LUT      0.082505
    184 H392       85.1020   67.8182   38.1715 R4         2 LUT      0.082505
    185 H391       83.5535   68.6795   38.1928 R4         2 LUT      0.082505
    186 H383       84.2175   68.4376   31.6957 R1         2 LUT      0.104030
    187 H382       83.5445   67.5255   33.1139 R1         2 LUT      0.104030
    188 H381       84.3993   69.1824   33.2893 R1         2 LUT      0.104030
    189 H373       87.1280   64.1019   35.1572 T4         2 LUT      0.089537
    190 H372       88.3886   64.9415   35.9598 T4         2 LUT      0.089537
    191 H371       86.8041   65.2368   36.6427 T4         2 LUT      0.089537
    192 H363       87.6362   67.6653   36.3483 T4         2 LUT      0.089537
    193 H362       88.9522   67.3811   35.2111 T4         2 LUT      0.089537
    194 H361       87.7827   68.3510   34.7027 T4         2 LUT      0.089537
    195 H222       89.0850   65.6215   33.4831 U2         2 LUT      0.127376
    196 H221       87.5623   64.9829   32.8414 U2         2 LUT      0.127376
    197 H203       73.7540   62.9894   40.2907 R7         2 LUT      0.087068
    198 H202       73.5330   61.5454   41.2393 R7         2 LUT      0.087068
    199 H201       72.4606   62.8012   41.2475 R7         2 LUT      0.087068
    200 H193       70.0589   60.4345   43.5211 R4         2 LUT      0.089716
    201 H192       69.4004   59.7912   44.9755 R4         2 LUT      0.089716
    202 H191       68.5607   61.0656   44.0422 R4         2 LUT      0.089716
    203 H183       67.1433   63.7141   46.9787 R1         2 LUT      0.094572
    204 H182       65.4801   63.5014   47.4876 R1         2 LUT      0.094572
    205 H181       66.6350   64.6987   48.2594 R1         2 LUT      0.094572
    206 H173       70.7241   60.5055   50.4329 T4         2 LUT      0.093752
    207 H172       70.4474   60.2414   48.7765 T4         2 LUT      0.093752
    208 H171       70.7048   61.8926   49.3476 T4         2 LUT      0.093752
    209 H163       68.6385   58.9757   50.6819 T4         2 LUT      0.093752
    210 H162       67.0712   59.4585   49.8466 T4         2 LUT      0.093752
    211 H161       68.4057   58.9582   48.9790 T4         2 LUT      0.093752
    212 HO3        66.7570   61.7579   53.2246 Q1         2 LUT      0.300121
    213 H8         69.7554   62.9415   46.9557 U7         2 LUT      0.080784
    214 H7         67.9831   60.4561   46.8331 U6         2 LUT      0.042190
    215 H42        65.3942   63.1347   50.3034 U5         2 LUT      0.145166
    216 H41        66.7308   63.8885   50.6818 U5         2 LUT      0.145166
    217 H35        77.5852   65.1731   42.5732 T3         2 LUT      0.077919
    218 H34        78.0940   64.3592   39.6820 T2         2 LUT      0.073626
    219 H32        80.1448   64.7274   38.6881 T1         2 LUT      0.092510
    220 H31        82.1203   66.6627   39.8447 U9         2 LUT      0.070048
    221 H30        82.1086   65.1528   37.2373 U8         2 LUT      0.085442
    222 H3         66.1930   60.9849   50.9616 U3         2 LUT     -0.031596
    223 H28        83.7502   65.4774   35.4878 U7         2 LUT      0.084728
    224 H27        85.4565   67.8755   36.0154 U6         2 LUT      0.087291
    225 H26        85.5307   65.7433   33.6627 Q6         2 LUT      0.075325
    226 H24        86.4651   68.1061   31.1735 Q5         2 LUT      0.094482
    227 H23        88.6739   67.7155   32.8008 U3         2 LUT     -0.024869
    228 H22        68.7337   61.0461   51.9517 U2         2 LUT      0.127376
    229 H21        68.8255   62.6643   51.1568 U2         2 LUT      0.127376
    230 H15        75.9551   63.7206   40.3939 T3         2 LUT      0.093200
    231 H14        75.4842   64.5341   43.2930 T2         2 LUT      0.068865
    232 H12        73.5609   64.0267   44.4140 T1         2 LUT      0.095507
    233 H11        71.9123   61.6973   43.2351 U9         2 LUT      0.068930
    234 H10        71.6992   63.3340   45.7425 U8         2 LUT      0.083911
    235 H1         88.2166   66.2792   30.3098 Q1         2 LUT      0.297311
@<TRIPOS>BOND
    1     6     1 1
    2     7     2 1
    3     8     3 1
    4     9     4 1
    5    11     4 1
    6    12     6 1
    7    13     9 1
    8    16     9 1
    9    25     5 1
   10    25    16 1
   11    26    10 1
   12    26    17 1
   13    27    18 1
   14    28    14 1
   15    28    19 1
   16    29    12 1
   17    30    13 1
   18    31    24 1
   19    32     1 1
   20    32    25 1
   21    33    21 1
   22    33    26 1
   23    34    22 1
   24    34    27 1
   25    35    23 1
   26    35    28 1
   27    36    12 1
   28    36    24 1
   29    37    13 1
   30    37    15 1
   31    38    31 1
   32    39    20 1
   33    39    32 1
   34    40     2 1
   35    40    33 1
   36    41     3 1
   37    41    34 1
   38    42     4 1
   39    42    35 1
   40    43    38 1
   41    44     5 1
   42    44    17 1
   43    44    39 1
   44    45    10 1
   45    45    18 1
   46    45    40 1
   47    46    19 1
   48    46    41 1
   49    47    14 1
   50    47    16 1
   51    47    42 1
   52    48    38 1
   53    49    48 1
   54    50    49 1
   55    51    50 1
   56    52    51 1
   57    53    51 1
   58    54    53 1
   59    55    54 1
   60    56    55 1
   61    57    56 1
   62    58    56 1
   63    59    58 1
   64    60    59 1
   65    61    60 1
   66    62    61 1
   67    63    61 1
   68    64    27 1
   69    64    46 1
   70    65     5 1
   71    65    10 1
   72    65    64 1
   73    65    14 1
   74    66    23 1
   75    67    23 1
   76    68    23 1
   77    69    22 1
   78    70    22 1
   79    71    22 1
   80    72    21 1
   81    73    21 1
   82    74    21 1
   83    75    20 1
   84    76    20 1
   85    77    20 1
   86    78    15 1
   87    79    15 1
   88    80    15 1
   89    81     8 1
   90    82     8 1
   91    83     8 1
   92    84     7 1
   93    85     7 1
   94    86     6 1
   95    87     6 1
   96    88     3 1
   97    89     3 1
   98    90     1 1
   99    91     1 1
  100    92    63 1
  101    93    63 1
  102    94    63 1
  103    95    62 1
  104    96    62 1
  105    97    62 1
  106    98    60 1
  107    99    60 1
  108   100    59 1
  109   101    59 1
  110   102    58 1
  111   103    58 1
  112   104    57 1
  113   105    57 1
  114   106    57 1
  115   107    55 1
  116   108    55 1
  117   109    54 1
  118   110    54 1
  119   111    53 1
  120   112    53 1
  121   113    19 1
  122   114    18 1
  123   115    17 1
  124   116     9 1
  125   117     2 1
  126   118    52 1
  127   119    52 1
  128   120    52 1
  129   121    51 1
  130   122    50 1
  131   123    50 1
  132   124    49 1
  133   125    49 1
  134   126    48 1
  135   127    48 1
  136   128    43 1
  137   129    43 1
  138   130    43 1
  139   131    39 1
  140   132    32 1
  141   133    31 1
  142   134    61 1
  143   135    56 1
  144   136    24 1
  145   137    24 1
  146   139   138 1
  147   140   139 1
  148   141   140 1
  149   142   140 1
  150   143   142 1
  151   144   138 1
  152   144   143 1
  153   145   144 1
  154   146   145 1
  155   147   146 1
  156   148   147 1
  157   149   148 1
  158   150   149 1
  159   151   150 1
  160   152   151 1
  161   153   152 1
  162   154   138 1
  163   155   138 1
  164   156   143 1
  165   157   147 1
  166   158   151 1
  167   160   159 1
  168   161   160 1
  169   162   161 1
  170   163   161 1
  171   164   163 1
  172   165   159 1
  173   165   164 1
  174   166   165 1
  175   167   166 1
  176   168   167 1
  177   169   168 1
  178   170   169 1
  179   171   170 1
  180   172   171 1
  181   173   172 1
  182   174   153 1
  183   174   173 1
  184   175   159 1
  185   176   159 1
  186   177   164 1
  187   178   168 1
  188   179   172 1
  189   180   179 1
  190   181   179 1
  191   182   179 1
  192   183   178 1
  193   184   178 1
  194   185   178 1
  195   186   177 1
  196   187   177 1
  197   188   177 1
  198   189   176 1
  199   190   176 1
  200   191   176 1
  201   192   175 1
  202   193   175 1
  203   194   175 1
  204   195   160 1
  205   196   160 1
  206   197   158 1
  207   198   158 1
  208   199   158 1
  209   200   157 1
  210   201   157 1
  211   202   157 1
  212   203   156 1
  213   204   156 1
  214   205   156 1
  215   206   155 1
  216   207   155 1
  217   208   155 1
  218   209   154 1
  219   210   154 1
  220   211   154 1
  221   212   141 1
  222   213   146 1
  223   214   145 1
  224   215   142 1
  225   216   142 1
  226   217   174 1
  227   218   173 1
  228   219   171 1
  229   220   170 1
  230   221   169 1
  231   222   140 1
  232   223   167 1
  233   224   166 1
  234   225   165 1
  235   226   163 1
  236   227   161 1
  237   228   139 1
  238   229   139 1
  239   230   153 1
  240   231   152 1
  241   232   150 1
  242   233   149 1
  243   234   148 1
  244   235   162 1
  245   65    153 1
  246   65    174 1
@<TRIPOS>SUBSTRUCTURE
      1 CLA               1 ****               0 ****  **** 
      2 LUT             138 ****               0 ****  **** 
