@<TRIPOS>MOLECULE
Cpptraj generated mol2 file.
  235   246     2     0     0
SMALL
USER_CHARGES


@<TRIPOS>ATOM
      1 CAA        77.0886   58.2507   34.2339 a2         1 CLA     -0.055900
      2 CAB        77.0059   61.5333   43.3526 c8         1 CLA     -0.148500
      3 CAC        70.2023   57.1411   42.4739 a2         1 CLA     -0.012600
      4 CAD        73.4288   54.9805   35.4856 ck         1 CLA      0.398800
      5 NA         76.1784   58.4019   37.6490 ns         1 CLA     -0.225500
      6 CBA        78.2170   58.3134   33.2316 a2         1 CLA     -0.135000
      7 CBB        77.5507   62.7475   43.6935 c0         1 CLA     -0.395200
      8 CBC        70.3145   55.6449   42.7946 a3         1 CLA     -0.037700
      9 CBD        74.9114   55.6486   35.2383 a1         1 CLA     -0.053900
     10 NB         75.9478   59.8270   40.2798 nm         1 CLA     -0.295700
     11 OBD        72.8673   54.1510   34.8034 o2         1 CLA     -0.494600
     12 CGA        79.0131   57.0058   32.9567 c4         1 CLA      0.827000
     13 CGD        75.9223   54.4555   35.2171 c4         1 CLA      0.655300
     14 ND         73.4422   57.2185   38.1628 nm         1 CLA     -0.291600
     15 CED        76.1526   52.2619   36.2475 a3         1 CLA      0.005400
     16 CHA        75.1280   56.6691   36.3656 cs         1 CLA     -0.123800
     17 CHB        77.7275   60.0985   38.5970 aa         1 CLA     -0.291900
     18 CHC        74.6124   59.7770   42.2883 aa         1 CLA     -0.090400
     19 CHD        71.6107   56.9302   39.6884 aa         1 CLA     -0.052000
     20 CMA        79.6235   58.1691   36.8622 a3         1 CLA     -0.230700
     21 CMB        79.1987   61.4799   41.1069 a3         1 CLA     -0.180800
     22 CMC        72.4108   58.9655   44.3031 a3         1 CLA     -0.134000
     23 CMD        70.9081   54.4927   37.7775 a3         1 CLA     -0.141100
     24 C1         80.3698   55.4468   34.0961 a2         1 CLA      0.023000
     25 C1A        76.1660   57.5548   36.5750 ac         1 CLA     -0.015100
     26 C1B        77.1276   60.3385   39.8875 cr         1 CLA      0.054700
     27 C1C        73.4454   59.0608   41.9319 cn         1 CLA     -0.005600
     28 C1D        72.2677   56.5829   38.5525 ap         1 CLA     -0.047300
     29 O1A        78.8664   56.2840   31.9623 o2         1 CLA     -0.610800
     30 O1D        76.6820   54.1872   34.3084 o2         1 CLA     -0.558200
     31 C2         81.2683   55.3405   35.3528 c8         1 CLA     -0.325100
     32 C2A        77.3875   57.7168   35.6813 a1         1 CLA      0.098600
     33 C2B        77.7555   61.0835   40.9529 cb         1 CLA      0.088500
     34 C2C        72.3767   58.5263   42.8470 cb         1 CLA      0.053700
     35 C2D        71.9569   55.4822   37.6715 cb         1 CLA      0.058900
     36 O2A        79.7935   56.7484   34.0644 o1         1 CLA     -0.437200
     37 O2D        75.7916   53.6823   36.3330 o1         1 CLA     -0.357600
     38 C3         81.6902   54.1799   35.9162 c5         1 CLA      0.031200
     39 C3A        78.2438   58.7365   36.5339 a1         1 CLA      0.166800
     40 C3B        76.8406   60.9875   41.9948 cb         1 CLA      0.035000
     41 C3C        71.4692   57.8332   42.0151 cb         1 CLA     -0.089900
     42 C3D        73.0030   55.5712   36.7269 cb         1 CLA     -0.035900
     43 C4         80.9640   53.3230   36.9589 a3         1 CLA     -0.053300
     44 C4A        77.3921   59.0327   37.6877 ac         1 CLA      0.001800
     45 C4B        75.7551   60.1435   41.5672 cn         1 CLA     -0.020900
     46 C4C        72.0723   57.7930   40.7302 cr         1 CLA     -0.044400
     47 C4D        73.9145   56.5756   37.1122 c6         1 CLA     -0.046000
     48 C5         83.1029   53.7556   35.5825 a2         1 CLA     -0.070400
     49 C6         84.1895   54.8350   36.0330 a2         1 CLA      0.043900
     50 C7         84.2766   55.1004   37.5356 a2         1 CLA     -0.150000
     51 C8         85.0351   56.4491   37.8973 a1         1 CLA      0.064200
     52 C9         86.5305   56.3269   37.5220 a3         1 CLA     -0.259300
     53 C10        84.7941   56.9818   39.3691 a2         1 CLA     -0.071900
     54 C11        83.3049   57.3230   39.8051 a2         1 CLA      0.014500
     55 C12        83.3748   58.4364   40.9411 a2         1 CLA     -0.112100
     56 C13        84.0886   58.1062   42.2934 a1         1 CLA      0.089200
     57 C14        83.6036   56.7666   42.9462 a3         1 CLA     -0.239100
     58 C15        84.2656   59.2204   43.3821 a2         1 CLA     -0.102200
     59 C16        82.9230   59.7154   43.9652 a2         1 CLA      0.023900
     60 C17        83.1278   60.7336   45.0517 a2         1 CLA     -0.105700
     61 C18        81.9941   61.0273   46.0924 a1         1 CLA      0.206800
     62 C19        82.3040   62.0087   47.2251 a3         1 CLA     -0.280100
     63 C20        80.7347   61.5598   45.2961 a3         1 CLA     -0.280100
     64 NC         73.2570   58.5154   40.6960 nx         1 CLA     -0.309200
     65 MG         74.6792   58.6102   39.1954 mg         1 CLA      0.895000
     66 HMD3       69.9190   54.9779   37.9174 dc         1 CLA      0.064300
     67 HMD2       70.9268   53.7771   36.9484 dc         1 CLA      0.064300
     68 HMD1       71.0298   53.9930   38.7203 dc         1 CLA      0.064300
     69 HMC3       71.8560   58.3081   44.9207 dc         1 CLA      0.052100
     70 HMC2       73.3724   59.1406   44.6189 dc         1 CLA      0.052100
     71 HMC1       71.8863   59.9261   44.3379 dc         1 CLA      0.052100
     72 HMB3       79.2793   62.5878   41.2477 dc         1 CLA      0.063600
     73 HMB2       79.7090   60.9413   41.9228 dc         1 CLA      0.063600
     74 HMB1       79.7035   61.4079   40.1689 dc         1 CLA      0.063600
     75 HMA3       80.2377   58.3872   36.0048 dc         1 CLA      0.058300
     76 HMA2       80.0352   58.7311   37.6583 dc         1 CLA      0.058300
     77 HMA1       79.5099   57.1378   37.0337 dc         1 CLA      0.058300
     78 HED3       75.4492   51.9090   35.5188 dc         1 CLA      0.079300
     79 HED2       77.1079   52.2403   35.8049 dc         1 CLA      0.079300
     80 HED1       76.2894   51.6757   37.1169 dc         1 CLA      0.079300
     81 HBC3       69.3690   55.1813   43.0048 dc         1 CLA      0.016300
     82 HBC2       70.6391   55.0173   41.9519 dc         1 CLA      0.016300
     83 HBC1       70.9574   55.5713   43.6300 dc         1 CLA      0.016300
     84 HBB2       77.6328   63.0482   44.7177 da         1 CLA      0.183000
     85 HBB1       78.0917   63.2649   42.9066 da         1 CLA      0.183000
     86 HBA2       77.8718   58.7545   32.2483 dc         1 CLA      0.029400
     87 HBA1       78.9904   59.0330   33.4843 dc         1 CLA      0.029400
     88 HAC2       69.9054   57.6345   43.4319 dc         1 CLA      0.029300
     89 HAC1       69.3887   57.2026   41.7708 dc         1 CLA      0.029300
     90 HAA2       76.4459   57.4747   33.8039 dc         1 CLA      0.028700
     91 HAA1       76.5743   59.1664   34.2211 dc         1 CLA      0.028700
     92 H203       80.0154   61.5676   46.0871 dc         1 CLA      0.065600
     93 H202       80.9177   62.5319   44.8661 dc         1 CLA      0.065600
     94 H201       80.4106   60.8287   44.5193 dc         1 CLA      0.065600
     95 H193       81.3781   62.3589   47.5806 dc         1 CLA      0.065600
     96 H192       82.9268   61.4721   47.8602 dc         1 CLA      0.065600
     97 H191       82.8380   62.7831   46.7053 dc         1 CLA      0.065600
     98 H172       83.7999   60.2168   45.6639 dc         1 CLA      0.027600
     99 H171       83.4440   61.7165   44.6043 dc         1 CLA      0.027600
    100 H162       82.2685   60.1569   43.2362 dc         1 CLA      0.002900
    101 H161       82.4529   58.8511   44.3358 dc         1 CLA      0.002900
    102 H152       84.9656   58.8817   44.1894 dc         1 CLA      0.029100
    103 H151       84.5627   60.1036   42.8160 dc         1 CLA      0.029100
    104 H143       82.5617   56.7596   43.4132 dc         1 CLA      0.063600
    105 H142       83.5723   56.0535   42.1482 dc         1 CLA      0.063600
    106 H141       84.3915   56.4144   43.6851 dc         1 CLA      0.063600
    107 H122       83.9084   59.2415   40.4970 dc         1 CLA      0.032500
    108 H121       82.3688   58.8169   41.0949 dc         1 CLA      0.032500
    109 H112       82.7226   57.9079   39.0424 dc         1 CLA      0.006600
    110 H111       82.7156   56.4504   40.1215 dc         1 CLA      0.006600
    111 H102       85.3834   56.4199   40.1024 dc         1 CLA      0.024100
    112 H101       85.1663   57.9540   39.1843 dc         1 CLA      0.024100
    113 HHD        70.7261   56.3331   39.8951 da         1 CLA      0.174300
    114 HHC        74.7945   60.1656   43.2985 da         1 CLA      0.136800
    115 HHB        78.7872   60.5335   38.4999 da         1 CLA      0.138300
    116 HBD        74.8776   56.0293   34.2204 dc         1 CLA      0.107700
    117 HAB        76.5116   60.9969   44.1679 da         1 CLA      0.155200
    118 H93        86.8133   56.0179   36.5256 dc         1 CLA      0.069500
    119 H92        86.9217   57.2985   37.6371 dc         1 CLA      0.069500
    120 H91        86.9753   55.6089   38.2582 dc         1 CLA      0.069500
    121 H8         84.6309   57.2436   37.2371 dc         1 CLA      0.029300
    122 H72        83.3194   55.1716   37.9774 dc         1 CLA      0.044400
    123 H71        84.9100   54.2632   38.0061 dc         1 CLA      0.044400
    124 H62        85.1177   54.3820   35.6743 dc         1 CLA      0.015600
    125 H61        84.0660   55.7853   35.6143 dc         1 CLA      0.015600
    126 H52        83.2998   52.8708   36.1370 dc         1 CLA      0.033200
    127 H51        83.0821   53.6041   34.4791 dc         1 CLA      0.033200
    128 H43        80.5706   52.5322   36.3953 dc         1 CLA      0.037000
    129 H42        81.6014   52.9169   37.7974 dc         1 CLA      0.037000
    130 H41        80.1009   53.9818   37.2346 dc         1 CLA      0.037000
    131 H3A        78.3413   59.6219   35.9250 dc         1 CLA      0.041100
    132 H2A        77.9054   56.7719   35.7111 dc         1 CLA      0.083100
    133 H2         81.3846   56.2345   35.9631 da         1 CLA      0.180900
    134 H18        81.8511   60.0525   46.4413 dc         1 CLA     -0.003900
    135 H13        85.1618   57.9924   41.9817 dc         1 CLA      0.019700
    136 H12        79.5923   54.7420   34.2873 dc         1 CLA      0.120400
    137 H11        80.9037   55.1818   33.1149 dc         1 CLA      0.120400
    138 C1         68.0092   61.0581   50.5871 Z1         2 LUT      0.509236
    139 C2         66.6627   61.0304   51.3420 Z2         2 LUT     -0.434695
    140 C3         65.8691   62.3368   51.5519 Z3         2 LUT      0.437453
    141 O3         65.7886   62.6579   52.9551 S1         2 LUT     -0.547129
    142 C4         66.4626   63.4442   50.6628 Z4         2 LUT     -0.468603
    143 C5         66.9816   62.9428   49.2966 Z5         2 LUT      0.279246
    144 C6         67.8447   61.8684   49.2545 Z6         2 LUT     -0.305473
    145 C7         68.2167   61.1873   47.9580 Z7         2 LUT      0.069402
    146 C8         68.6896   62.0236   46.9924 Z8         2 LUT     -0.191631
    147 C9         69.2105   61.7177   45.7125 Z9         2 LUT      0.196698
    148 C10        70.1362   62.5702   45.1807 Y1         2 LUT     -0.208611
    149 C11        70.7110   62.6006   43.8232 Y2         2 LUT      0.030784
    150 C12        71.8630   63.2629   43.5156 Y3         2 LUT     -0.220316
    151 C13        72.6675   63.2060   42.3497 Y4         2 LUT      0.215937
    152 C14        73.8415   63.9364   42.3205 Y5         2 LUT     -0.185793
    153 C15        74.9091   63.9755   41.3334 Y6         2 LUT     -0.057835
    154 C16        68.3926   59.5630   50.4710 Y7         2 LUT     -0.405615
    155 C17        69.0358   61.7239   51.5560 Y7         2 LUT     -0.405615
    156 C18        66.2938   63.6469   48.0780 Y9         2 LUT     -0.369639
    157 C19        68.6656   60.5304   44.9394 W1         2 LUT     -0.333362
    158 C20        72.2508   62.3541   41.1520 W2         2 LUT     -0.323439
    159 C21        86.1857   65.0636   35.1487 Z1         2 LUT      0.406104
    160 C22        87.0272   64.5060   33.9829 Z2         2 LUT     -0.404965
    161 C23        87.3277   65.4296   32.8281 Z3         2 LUT      0.391255
    162 O23        88.0727   64.7835   31.7530 S1         2 LUT     -0.528210
    163 C24        86.0738   66.3449   32.5424 W6         2 LUT     -0.258361
    164 C25        84.9706   66.5150   33.3018 Z5         2 LUT      0.133546
    165 C26        84.8120   65.6634   34.5857 W8         2 LUT     -0.147008
    166 C27        84.0717   66.2622   35.7145 Z7         2 LUT      0.023843
    167 C28        82.9116   65.8160   36.2053 Z8         2 LUT     -0.216987
    168 C29        82.2459   66.3892   37.3766 Z9         2 LUT      0.206524
    169 C30        81.2084   65.6492   37.9476 Y1         2 LUT     -0.215556
    170 C31        80.2368   65.9105   39.0200 Y2         2 LUT      0.025142
    171 C32        79.2263   65.1581   39.3992 Y3         2 LUT     -0.212209
    172 C33        78.3292   65.3513   40.5476 Y4         2 LUT      0.240937
    173 C34        77.1690   64.6404   40.5492 Y5         2 LUT     -0.218862
    174 C35        76.0848   64.6672   41.4806 Y6         2 LUT     -0.023547
    175 C36        87.1302   65.9937   35.9062 Y7         2 LUT     -0.393485
    176 C37        85.8211   63.8987   36.0713 Y7         2 LUT     -0.393485
    177 C38        83.9031   67.5378   32.8874 Y9         2 LUT     -0.387526
    178 C39        82.6245   67.8096   37.7761 W1         2 LUT     -0.322618
    179 C40        78.6890   66.3465   41.6531 W2         2 LUT     -0.358472
    180 H403       78.0251   66.1612   42.5221 R7         2 LUT      0.097720
    181 H402       79.6803   66.1910   42.0816 R7         2 LUT      0.097720
    182 H401       78.6015   67.3575   41.3010 R7         2 LUT      0.097720
    183 H393       83.6446   67.8792   38.1780 R4         2 LUT      0.082505
    184 H392       82.6254   68.6114   37.0108 R4         2 LUT      0.082505
    185 H391       82.0669   68.0835   38.6994 R4         2 LUT      0.082505
    186 H383       83.8300   67.4498   31.7917 R1         2 LUT      0.104030
    187 H382       82.9264   67.5038   33.3741 R1         2 LUT      0.104030
    188 H381       84.3872   68.5473   32.8605 R1         2 LUT      0.104030
    189 H373       85.0559   64.0358   36.8026 T4         2 LUT      0.089537
    190 H372       85.4637   63.0464   35.5411 T4         2 LUT      0.089537
    191 H371       86.6155   63.3878   36.5565 T4         2 LUT      0.089537
    192 H363       88.0850   65.6366   36.1859 T4         2 LUT      0.089537
    193 H362       87.3000   66.8861   35.2384 T4         2 LUT      0.089537
    194 H361       86.6483   66.3675   36.8018 T4         2 LUT      0.089537
    195 H222       87.9528   64.1282   34.4294 U2         2 LUT      0.127376
    196 H221       86.4388   63.7201   33.5302 U2         2 LUT      0.127376
    197 H203       71.3815   62.7103   40.6623 R7         2 LUT      0.087068
    198 H202       72.9510   62.2675   40.3787 R7         2 LUT      0.087068
    199 H201       71.9972   61.3107   41.3492 R7         2 LUT      0.087068
    200 H193       67.9309   59.8851   45.4112 R4         2 LUT      0.089716
    201 H192       68.1089   60.7124   43.9601 R4         2 LUT      0.089716
    202 H191       69.5929   60.0113   44.6751 R4         2 LUT      0.089716
    203 H183       66.6129   64.6600   48.1040 R1         2 LUT      0.094572
    204 H182       66.4861   63.2375   47.1105 R1         2 LUT      0.094572
    205 H181       65.2028   63.7449   48.1057 R1         2 LUT      0.094572
    206 H173       69.0111   62.7884   51.7602 T4         2 LUT      0.093752
    207 H172       68.9913   61.2412   52.5476 T4         2 LUT      0.093752
    208 H171       70.0301   61.6858   51.2320 T4         2 LUT      0.093752
    209 H163       68.5101   59.0517   51.4273 T4         2 LUT      0.093752
    210 H162       67.6016   59.0389   49.8741 T4         2 LUT      0.093752
    211 H161       69.2894   59.3902   49.9833 T4         2 LUT      0.093752
    212 HO3        66.6115   62.8012   53.2884 Q1         2 LUT      0.300121
    213 H8         68.7193   63.1273   47.1714 U7         2 LUT      0.080784
    214 H7         68.1263   60.1194   47.8288 U6         2 LUT      0.042190
    215 H42        65.9244   64.3669   50.6091 U5         2 LUT      0.145166
    216 H41        67.2121   64.0206   51.2272 U5         2 LUT      0.145166
    217 H35        76.1323   65.1446   42.4673 T3         2 LUT      0.077919
    218 H34        77.0397   64.0322   39.6488 T2         2 LUT      0.073626
    219 H32        79.0675   64.2786   38.7361 T1         2 LUT      0.092510
    220 H31        80.3825   66.8422   39.6059 U9         2 LUT      0.070048
    221 H30        81.0622   64.6737   37.4680 U8         2 LUT      0.085442
    222 H3         64.7567   62.2361   51.3267 U3         2 LUT     -0.031596
    223 H28        82.3894   64.9524   35.7477 U7         2 LUT      0.084728
    224 H27        84.5589   67.1169   36.1620 U6         2 LUT      0.087291
    225 H26        84.4240   64.7182   34.3405 Q6         2 LUT      0.075325
    226 H24        86.1054   66.9693   31.6587 Q5         2 LUT      0.094482
    227 H23        88.0769   66.1297   33.3165 U3         2 LUT     -0.024869
    228 H22        65.9051   60.4271   50.9405 U2         2 LUT      0.127376
    229 H21        66.8787   60.6336   52.3258 U2         2 LUT      0.127376
    230 H15        74.7201   63.4657   40.3581 T3         2 LUT      0.093200
    231 H14        74.1315   64.5249   43.2282 T2         2 LUT      0.068865
    232 H12        72.2744   63.8921   44.2920 T1         2 LUT      0.095507
    233 H11        70.2275   61.9970   43.0014 U9         2 LUT      0.068930
    234 H10        70.5486   63.3842   45.8611 U8         2 LUT      0.083911
    235 H1         87.5206   64.4981   31.0333 Q1         2 LUT      0.297311
@<TRIPOS>BOND
    1     6     1 1
    2     7     2 1
    3     8     3 1
    4     9     4 1
    5    11     4 1
    6    12     6 1
    7    13     9 1
    8    16     9 1
    9    25     5 1
   10    25    16 1
   11    26    10 1
   12    26    17 1
   13    27    18 1
   14    28    14 1
   15    28    19 1
   16    29    12 1
   17    30    13 1
   18    31    24 1
   19    32     1 1
   20    32    25 1
   21    33    21 1
   22    33    26 1
   23    34    22 1
   24    34    27 1
   25    35    23 1
   26    35    28 1
   27    36    12 1
   28    36    24 1
   29    37    13 1
   30    37    15 1
   31    38    31 1
   32    39    20 1
   33    39    32 1
   34    40     2 1
   35    40    33 1
   36    41     3 1
   37    41    34 1
   38    42     4 1
   39    42    35 1
   40    43    38 1
   41    44     5 1
   42    44    17 1
   43    44    39 1
   44    45    10 1
   45    45    18 1
   46    45    40 1
   47    46    19 1
   48    46    41 1
   49    47    14 1
   50    47    16 1
   51    47    42 1
   52    48    38 1
   53    49    48 1
   54    50    49 1
   55    51    50 1
   56    52    51 1
   57    53    51 1
   58    54    53 1
   59    55    54 1
   60    56    55 1
   61    57    56 1
   62    58    56 1
   63    59    58 1
   64    60    59 1
   65    61    60 1
   66    62    61 1
   67    63    61 1
   68    64    27 1
   69    64    46 1
   70    65     5 1
   71    65    10 1
   72    65    64 1
   73    65    14 1
   74    66    23 1
   75    67    23 1
   76    68    23 1
   77    69    22 1
   78    70    22 1
   79    71    22 1
   80    72    21 1
   81    73    21 1
   82    74    21 1
   83    75    20 1
   84    76    20 1
   85    77    20 1
   86    78    15 1
   87    79    15 1
   88    80    15 1
   89    81     8 1
   90    82     8 1
   91    83     8 1
   92    84     7 1
   93    85     7 1
   94    86     6 1
   95    87     6 1
   96    88     3 1
   97    89     3 1
   98    90     1 1
   99    91     1 1
  100    92    63 1
  101    93    63 1
  102    94    63 1
  103    95    62 1
  104    96    62 1
  105    97    62 1
  106    98    60 1
  107    99    60 1
  108   100    59 1
  109   101    59 1
  110   102    58 1
  111   103    58 1
  112   104    57 1
  113   105    57 1
  114   106    57 1
  115   107    55 1
  116   108    55 1
  117   109    54 1
  118   110    54 1
  119   111    53 1
  120   112    53 1
  121   113    19 1
  122   114    18 1
  123   115    17 1
  124   116     9 1
  125   117     2 1
  126   118    52 1
  127   119    52 1
  128   120    52 1
  129   121    51 1
  130   122    50 1
  131   123    50 1
  132   124    49 1
  133   125    49 1
  134   126    48 1
  135   127    48 1
  136   128    43 1
  137   129    43 1
  138   130    43 1
  139   131    39 1
  140   132    32 1
  141   133    31 1
  142   134    61 1
  143   135    56 1
  144   136    24 1
  145   137    24 1
  146   139   138 1
  147   140   139 1
  148   141   140 1
  149   142   140 1
  150   143   142 1
  151   144   138 1
  152   144   143 1
  153   145   144 1
  154   146   145 1
  155   147   146 1
  156   148   147 1
  157   149   148 1
  158   150   149 1
  159   151   150 1
  160   152   151 1
  161   153   152 1
  162   154   138 1
  163   155   138 1
  164   156   143 1
  165   157   147 1
  166   158   151 1
  167   160   159 1
  168   161   160 1
  169   162   161 1
  170   163   161 1
  171   164   163 1
  172   165   159 1
  173   165   164 1
  174   166   165 1
  175   167   166 1
  176   168   167 1
  177   169   168 1
  178   170   169 1
  179   171   170 1
  180   172   171 1
  181   173   172 1
  182   174   153 1
  183   174   173 1
  184   175   159 1
  185   176   159 1
  186   177   164 1
  187   178   168 1
  188   179   172 1
  189   180   179 1
  190   181   179 1
  191   182   179 1
  192   183   178 1
  193   184   178 1
  194   185   178 1
  195   186   177 1
  196   187   177 1
  197   188   177 1
  198   189   176 1
  199   190   176 1
  200   191   176 1
  201   192   175 1
  202   193   175 1
  203   194   175 1
  204   195   160 1
  205   196   160 1
  206   197   158 1
  207   198   158 1
  208   199   158 1
  209   200   157 1
  210   201   157 1
  211   202   157 1
  212   203   156 1
  213   204   156 1
  214   205   156 1
  215   206   155 1
  216   207   155 1
  217   208   155 1
  218   209   154 1
  219   210   154 1
  220   211   154 1
  221   212   141 1
  222   213   146 1
  223   214   145 1
  224   215   142 1
  225   216   142 1
  226   217   174 1
  227   218   173 1
  228   219   171 1
  229   220   170 1
  230   221   169 1
  231   222   140 1
  232   223   167 1
  233   224   166 1
  234   225   165 1
  235   226   163 1
  236   227   161 1
  237   228   139 1
  238   229   139 1
  239   230   153 1
  240   231   152 1
  241   232   150 1
  242   233   149 1
  243   234   148 1
  244   235   162 1
  245   65    153 1
  246   65    174 1
@<TRIPOS>SUBSTRUCTURE
      1 CLA               1 ****               0 ****  **** 
      2 LUT             138 ****               0 ****  **** 
