@<TRIPOS>MOLECULE
Cpptraj generated mol2 file.
  235   246     2     0     0
SMALL
USER_CHARGES


@<TRIPOS>ATOM
      1 CAA        77.9192   58.6809   33.6262 a2         1 CLA     -0.055900
      2 CAB        78.5746   62.1916   42.5092 c8         1 CLA     -0.148500
      3 CAC        71.4672   58.2903   42.4119 a2         1 CLA     -0.012600
      4 CAD        73.5856   56.1579   34.8636 ck         1 CLA      0.398800
      5 NA         77.0071   58.9709   37.0198 ns         1 CLA     -0.225500
      6 CBA        78.9597   58.4288   32.5234 a2         1 CLA     -0.135000
      7 CBB        79.8225   62.2759   42.9851 c0         1 CLA     -0.395200
      8 CBC        71.4409   56.8136   42.4719 a3         1 CLA     -0.037700
      9 CBD        75.0092   56.6662   34.4863 a1         1 CLA     -0.053900
     10 NB         77.0782   60.4152   39.5967 nm         1 CLA     -0.295700
     11 OBD        72.9339   55.3712   34.1772 o2         1 CLA     -0.494600
     12 CGA        79.3118   56.9870   32.2425 c4         1 CLA      0.827000
     13 CGD        75.8694   55.6047   33.9996 c4         1 CLA      0.655300
     14 ND         74.2002   58.2013   37.7266 nm         1 CLA     -0.291600
     15 CED        76.3931   53.3115   34.2841 a3         1 CLA      0.005400
     16 CHA        75.5102   57.5038   35.6720 cs         1 CLA     -0.123800
     17 CHB        78.8950   60.2587   37.9210 aa         1 CLA     -0.291900
     18 CHC        75.9235   60.5194   41.7605 aa         1 CLA     -0.090400
     19 CHD        72.5158   58.0005   39.4377 aa         1 CLA     -0.052000
     20 CMA        80.4702   58.0876   36.3553 a3         1 CLA     -0.230700
     21 CMB        80.3705   62.0624   39.9276 a3         1 CLA     -0.180800
     22 CMC        73.5676   60.3552   43.8316 a3         1 CLA     -0.134000
     23 CMD        70.8893   56.4994   37.2041 a3         1 CLA     -0.141100
     24 C1         80.2885   55.0551   33.1630 a2         1 CLA      0.023000
     25 C1A        76.7603   58.1523   35.9034 ac         1 CLA     -0.015100
     26 C1B        78.3467   60.7258   39.1315 cr         1 CLA      0.054700
     27 C1C        74.7644   59.8110   41.5158 cn         1 CLA     -0.005600
     28 C1D        72.9693   57.8226   38.1300 ap         1 CLA     -0.047300
     29 O1A        79.1445   56.4115   31.1882 o2         1 CLA     -0.610800
     30 O1D        76.5484   55.6232   33.0003 o2         1 CLA     -0.558200
     31 C2         80.7417   54.6197   34.5483 c8         1 CLA     -0.325100
     32 C2A        78.0311   57.9946   35.0741 a1         1 CLA      0.098600
     33 C2B        79.0706   61.4403   40.1153 cb         1 CLA      0.088500
     34 C2C        73.6541   59.6761   42.4409 cb         1 CLA      0.053700
     35 C2D        72.2664   57.0334   37.1201 cb         1 CLA      0.058900
     36 O2A        79.9244   56.4624   33.3341 o1         1 CLA     -0.437200
     37 O2D        75.9541   54.5511   34.9263 o1         1 CLA     -0.357600
     38 C3         81.3085   53.4588   34.8458 c5         1 CLA      0.031200
     39 C3A        79.1119   58.7232   35.9142 a1         1 CLA      0.166800
     40 C3B        78.2267   61.5888   41.2197 cb         1 CLA      0.035000
     41 C3C        72.6923   58.8956   41.7814 cb         1 CLA     -0.089900
     42 C3D        73.2494   56.8469   36.1267 cb         1 CLA     -0.035900
     43 C4         80.5164   52.1865   35.0485 a3         1 CLA     -0.053300
     44 C4A        78.2734   59.4083   36.9940 ac         1 CLA      0.001800
     45 C4B        77.0069   60.8150   40.9575 cn         1 CLA     -0.020900
     46 C4C        73.1748   58.7155   40.3929 cr         1 CLA     -0.044400
     47 C4D        74.3979   57.5824   36.5143 c6         1 CLA     -0.046000
     48 C5         82.8388   53.3403   34.6439 a2         1 CLA     -0.070400
     49 C6         83.7739   54.5166   34.9190 a2         1 CLA      0.043900
     50 C7         83.8038   54.7891   36.4700 a2         1 CLA     -0.150000
     51 C8         84.3581   56.2009   36.8554 a1         1 CLA      0.064200
     52 C9         85.7231   56.5306   36.2465 a3         1 CLA     -0.259300
     53 C10        84.3024   56.4415   38.3926 a2         1 CLA     -0.071900
     54 C11        82.8544   56.5162   38.9428 a2         1 CLA      0.014500
     55 C12        82.9379   57.0194   40.3605 a2         1 CLA     -0.112100
     56 C13        81.6502   56.9803   41.2379 a1         1 CLA      0.089200
     57 C14        80.7092   58.2080   40.8549 a3         1 CLA     -0.239100
     58 C15        82.0193   57.0713   42.7730 a2         1 CLA     -0.102200
     59 C16        82.5136   58.5406   43.2062 a2         1 CLA      0.023900
     60 C17        82.9305   58.5097   44.7342 a2         1 CLA     -0.105700
     61 C18        83.0384   59.8243   45.5572 a1         1 CLA      0.206800
     62 C19        84.0291   60.8333   44.9502 a3         1 CLA     -0.280100
     63 C20        81.5892   60.4189   45.8753 a3         1 CLA     -0.280100
     64 NC         74.4568   59.2379   40.2848 nx         1 CLA     -0.309200
     65 MG         75.6408   59.3608   38.6192 mg         1 CLA      0.895000
     66 HMD3       70.0704   57.2037   37.1408 dc         1 CLA      0.064300
     67 HMD2       70.7923   55.8119   36.3879 dc         1 CLA      0.064300
     68 HMD1       70.7065   56.0590   38.1493 dc         1 CLA      0.064300
     69 HMC3       72.6533   60.1058   44.3028 dc         1 CLA      0.052100
     70 HMC2       74.2917   59.8559   44.4378 dc         1 CLA      0.052100
     71 HMC1       73.6530   61.4227   43.7761 dc         1 CLA      0.052100
     72 HMB3       80.4418   63.0107   40.4623 dc         1 CLA      0.063600
     73 HMB2       81.1735   61.4256   40.2726 dc         1 CLA      0.063600
     74 HMB1       80.4969   62.2333   38.8450 dc         1 CLA      0.063600
     75 HMA3       80.2374   57.3477   37.1132 dc         1 CLA      0.058300
     76 HMA2       80.9059   57.6443   35.4479 dc         1 CLA      0.058300
     77 HMA1       81.0513   58.8618   36.7941 dc         1 CLA      0.058300
     78 HED3       77.4599   53.3395   34.2817 dc         1 CLA      0.079300
     79 HED2       75.9768   52.5733   35.0660 dc         1 CLA      0.079300
     80 HED1       76.0075   53.0430   33.2624 dc         1 CLA      0.079300
     81 HBC3       70.7223   56.4062   43.1793 dc         1 CLA      0.016300
     82 HBC2       71.2372   56.3069   41.5032 dc         1 CLA      0.016300
     83 HBC1       72.3429   56.5036   42.9813 dc         1 CLA      0.016300
     84 HBB2       79.9512   62.7216   43.9757 da         1 CLA      0.183000
     85 HBB1       80.7376   61.7959   42.5382 da         1 CLA      0.183000
     86 HBA2       78.6786   58.8905   31.6098 dc         1 CLA      0.029400
     87 HBA1       79.8340   58.9575   32.7715 dc         1 CLA      0.029400
     88 HAC2       71.3724   58.6047   43.4730 dc         1 CLA      0.029300
     89 HAC1       70.5808   58.5902   41.9520 dc         1 CLA      0.029300
     90 HAA2       76.9743   58.2909   33.3153 dc         1 CLA      0.028700
     91 HAA1       77.9814   59.7805   33.8047 dc         1 CLA      0.028700
     92 H203       81.8175   61.2819   46.4452 dc         1 CLA      0.065600
     93 H202       81.0877   60.8106   44.9694 dc         1 CLA      0.065600
     94 H201       80.9356   59.7290   46.3201 dc         1 CLA      0.065600
     95 H193       84.0195   60.7722   43.8480 dc         1 CLA      0.065600
     96 H192       83.8072   61.8085   45.2710 dc         1 CLA      0.065600
     97 H191       85.0605   60.4958   45.2960 dc         1 CLA      0.065600
     98 H172       82.2909   57.8722   45.2927 dc         1 CLA      0.027600
     99 H171       84.0133   58.1077   44.7156 dc         1 CLA      0.027600
    100 H162       83.3966   58.7621   42.6112 dc         1 CLA      0.002900
    101 H161       81.7018   59.2723   43.0473 dc         1 CLA      0.002900
    102 H152       81.1583   56.6916   43.3832 dc         1 CLA      0.029100
    103 H151       82.8433   56.4073   42.9564 dc         1 CLA      0.029100
    104 H143       81.1665   59.1906   40.9788 dc         1 CLA      0.063600
    105 H142       80.2639   58.0009   39.8562 dc         1 CLA      0.063600
    106 H141       79.8890   58.2199   41.5591 dc         1 CLA      0.063600
    107 H122       83.6158   56.3349   40.7923 dc         1 CLA      0.032500
    108 H121       83.2705   58.0630   40.2931 dc         1 CLA      0.032500
    109 H112       82.1976   57.2204   38.4105 dc         1 CLA      0.006600
    110 H111       82.2991   55.5952   38.7630 dc         1 CLA      0.006600
    111 H102       84.8813   55.6526   38.9122 dc         1 CLA      0.024100
    112 H101       84.7946   57.3727   38.6720 dc         1 CLA      0.024100
    113 HHD        71.5073   57.6715   39.6622 da         1 CLA      0.174300
    114 HHC        75.9792   60.8390   42.8702 da         1 CLA      0.136800
    115 HHB        79.9528   60.4681   37.7326 da         1 CLA      0.138300
    116 HBD        74.9655   57.3431   33.5919 dc         1 CLA      0.107700
    117 HAB        77.6483   62.4834   43.0575 da         1 CLA      0.155200
    118 H93        85.6533   56.6397   35.1647 dc         1 CLA      0.069500
    119 H92        86.1365   57.4662   36.6457 dc         1 CLA      0.069500
    120 H91        86.2681   55.6213   36.5276 dc         1 CLA      0.069500
    121 H8         83.6954   56.8754   36.2408 dc         1 CLA      0.029300
    122 H72        82.7848   54.6722   36.7917 dc         1 CLA      0.044400
    123 H71        84.2144   53.9399   36.9400 dc         1 CLA      0.044400
    124 H62        84.7959   54.1865   34.6554 dc         1 CLA      0.015600
    125 H61        83.4875   55.4274   34.3602 dc         1 CLA      0.015600
    126 H52        83.1648   52.4747   35.1945 dc         1 CLA      0.033200
    127 H51        82.8554   53.1102   33.6199 dc         1 CLA      0.033200
    128 H43        80.4624   51.9614   36.1090 dc         1 CLA      0.037000
    129 H42        79.4326   52.3121   34.8592 dc         1 CLA      0.037000
    130 H41        80.9786   51.4416   34.3458 dc         1 CLA      0.037000
    131 H3A        79.5003   59.5532   35.3534 dc         1 CLA      0.041100
    132 H2A        78.3439   56.9377   34.9621 dc         1 CLA      0.083100
    133 H2         80.5790   55.4595   35.3047 da         1 CLA      0.180900
    134 H18        83.3889   59.4405   46.5246 dc         1 CLA     -0.003900
    135 H13        80.9751   56.1219   40.9757 dc         1 CLA      0.019700
    136 H12        79.3748   54.5072   33.1280 dc         1 CLA      0.120400
    137 H11        81.0134   54.8004   32.3437 dc         1 CLA      0.120400
    138 C1         68.0745   61.6663   49.9023 Z1         2 LUT      0.509236
    139 C2         66.7139   61.3638   50.4805 Z2         2 LUT     -0.434695
    140 C3         65.7959   62.5593   50.7515 Z3         2 LUT      0.437453
    141 O3         65.7520   62.7935   52.1531 S1         2 LUT     -0.547129
    142 C4         66.0577   63.7759   49.9485 Z4         2 LUT     -0.468603
    143 C5         66.8642   63.5850   48.7818 Z5         2 LUT      0.279246
    144 C6         67.9221   62.6934   48.7306 Z6         2 LUT     -0.305473
    145 C7         68.4819   62.2027   47.3947 Z7         2 LUT      0.069402
    146 C8         69.2091   62.9090   46.4482 Z8         2 LUT     -0.191631
    147 C9         69.7354   62.3213   45.2378 Z9         2 LUT      0.196698
    148 C10        70.7027   63.0887   44.6399 Y1         2 LUT     -0.208611
    149 C11        71.3909   62.9627   43.3780 Y2         2 LUT      0.030784
    150 C12        72.4764   63.7568   43.1055 Y3         2 LUT     -0.220316
    151 C13        73.2429   63.6641   41.8094 Y4         2 LUT      0.215937
    152 C14        74.4148   64.2302   41.7521 Y5         2 LUT     -0.185793
    153 C15        75.3713   64.3420   40.6547 Y6         2 LUT     -0.057835
    154 C16        68.7291   60.2348   49.6122 Y7         2 LUT     -0.405615
    155 C17        68.8416   62.3580   51.0326 Y7         2 LUT     -0.405615
    156 C18        66.3465   64.4538   47.6424 Y9         2 LUT     -0.369639
    157 C19        69.2948   60.9761   44.6217 W1         2 LUT     -0.333362
    158 C20        72.6037   62.9796   40.6935 W2         2 LUT     -0.323439
    159 C21        86.7566   65.7725   34.4423 Z1         2 LUT      0.406104
    160 C22        87.5448   65.3327   33.2006 Z2         2 LUT     -0.404965
    161 C23        87.9208   66.5586   32.2778 Z3         2 LUT      0.391255
    162 O23        88.8556   66.1869   31.2653 S1         2 LUT     -0.528210
    163 C24        86.6412   67.2754   31.9384 W6         2 LUT     -0.258361
    164 C25        85.5837   67.2788   32.7808 Z5         2 LUT      0.133546
    165 C26        85.4497   66.4198   34.0135 W8         2 LUT     -0.147008
    166 C27        84.6471   67.0405   35.0598 Z7         2 LUT      0.023843
    167 C28        83.5589   66.5249   35.6452 Z8         2 LUT     -0.216987
    168 C29        82.9666   66.6172   36.9173 Z9         2 LUT      0.206524
    169 C30        81.7347   65.9877   37.1967 Y1         2 LUT     -0.215556
    170 C31        80.9260   65.8979   38.4395 Y2         2 LUT      0.025142
    171 C32        79.7927   65.2509   38.7231 Y3         2 LUT     -0.212209
    172 C33        78.9937   65.3538   39.9285 Y4         2 LUT      0.240937
    173 C34        77.8354   64.6683   40.0104 Y5         2 LUT     -0.218862
    174 C35        76.6734   64.7306   40.8800 Y6         2 LUT     -0.023547
    175 C36        87.5683   66.6866   35.2697 Y7         2 LUT     -0.393485
    176 C37        86.4847   64.4532   35.2367 Y7         2 LUT     -0.393485
    177 C38        84.3334   68.0177   32.3686 Y9         2 LUT     -0.387526
    178 C39        83.7520   67.4165   37.9476 W1         2 LUT     -0.322618
    179 C40        79.5237   66.0723   41.1458 W2         2 LUT     -0.358472
    180 H403       79.7547   67.1498   40.8568 R7         2 LUT      0.097720
    181 H402       78.8967   66.0778   42.1011 R7         2 LUT      0.097720
    182 H401       80.4631   65.5220   41.4728 R7         2 LUT      0.097720
    183 H393       84.7078   66.8842   38.2117 R4         2 LUT      0.082505
    184 H392       84.1126   68.3711   37.5411 R4         2 LUT      0.082505
    185 H391       83.2446   67.8096   38.8142 R4         2 LUT      0.082505
    186 H383       84.2712   69.0337   32.7932 R1         2 LUT      0.104030
    187 H382       84.4330   68.3001   31.2746 R1         2 LUT      0.104030
    188 H381       83.4249   67.4564   32.4856 R1         2 LUT      0.104030
    189 H373       86.1365   64.6184   36.2244 T4         2 LUT      0.089537
    190 H372       85.8962   63.6893   34.7034 T4         2 LUT      0.089537
    191 H371       87.3151   63.8373   35.4283 T4         2 LUT      0.089537
    192 H363       87.1421   66.7042   36.3124 T4         2 LUT      0.089537
    193 H362       88.6759   66.3882   35.4150 T4         2 LUT      0.089537
    194 H361       87.4680   67.6838   34.8975 T4         2 LUT      0.089537
    195 H222       88.4557   64.8676   33.5346 U2         2 LUT      0.127376
    196 H221       86.9763   64.5540   32.5426 U2         2 LUT      0.127376
    197 H203       71.5435   63.2278   40.5812 R7         2 LUT      0.087068
    198 H202       73.0660   63.3549   39.7573 R7         2 LUT      0.087068
    199 H201       72.7250   61.9018   40.8718 R7         2 LUT      0.087068
    200 H193       68.3547   61.0240   44.1436 R4         2 LUT      0.089716
    201 H192       69.9898   60.6301   43.8780 R4         2 LUT      0.089716
    202 H191       69.1325   60.1908   45.3397 R4         2 LUT      0.089716
    203 H183       66.8075   64.0875   46.7398 R1         2 LUT      0.094572
    204 H182       65.2078   64.4375   47.5001 R1         2 LUT      0.094572
    205 H181       66.7056   65.4487   47.7951 R1         2 LUT      0.094572
    206 H173       69.8148   62.6579   50.6653 T4         2 LUT      0.093752
    207 H172       68.4367   63.2870   51.4271 T4         2 LUT      0.093752
    208 H171       69.0599   61.6638   51.8621 T4         2 LUT      0.093752
    209 H163       69.7179   60.3194   49.1650 T4         2 LUT      0.093752
    210 H162       68.7757   59.5766   50.5048 T4         2 LUT      0.093752
    211 H161       68.0244   59.7137   48.8899 T4         2 LUT      0.093752
    212 HO3        65.1908   62.1283   52.5954 Q1         2 LUT      0.300121
    213 H8         69.5338   63.8829   46.7895 U7         2 LUT      0.080784
    214 H7         68.2796   61.1963   47.1332 U6         2 LUT      0.042190
    215 H42        65.0746   64.1411   49.6142 U5         2 LUT      0.145166
    216 H41        66.3677   64.5445   50.6565 U5         2 LUT      0.145166
    217 H35        76.8672   65.0671   41.8406 T3         2 LUT      0.077919
    218 H34        77.6156   64.1673   39.0409 T2         2 LUT      0.073626
    219 H32        79.4213   64.6359   38.0086 T1         2 LUT      0.092510
    220 H31        81.1931   66.5520   39.2531 U9         2 LUT      0.070048
    221 H30        81.3128   65.5356   36.3128 U8         2 LUT      0.085442
    222 H3         64.8708   62.2287   50.2895 U3         2 LUT     -0.031596
    223 H28        83.1106   65.7699   34.9933 U7         2 LUT      0.084728
    224 H27        85.2474   67.7612   35.6637 U6         2 LUT      0.087291
    225 H26        84.8430   65.6335   33.6177 Q6         2 LUT      0.075325
    226 H24        86.6495   67.7930   30.9699 Q5         2 LUT      0.094482
    227 H23        88.5156   67.2231   32.8158 U3         2 LUT     -0.024869
    228 H22        66.1728   60.7105   49.8338 U2         2 LUT      0.127376
    229 H21        66.8235   60.6681   51.3221 U2         2 LUT      0.127376
    230 H15        75.2558   63.8816   39.6539 T3         2 LUT      0.093200
    231 H14        74.6792   64.8533   42.6049 T2         2 LUT      0.068865
    232 H12        72.8493   64.4937   43.9445 T1         2 LUT      0.095507
    233 H11        71.0542   62.1716   42.6533 U9         2 LUT      0.068930
    234 H10        71.0593   63.9766   45.2406 U8         2 LUT      0.083911
    235 H1         88.5108   65.9921   30.4035 Q1         2 LUT      0.297311
@<TRIPOS>BOND
    1     6     1 1
    2     7     2 1
    3     8     3 1
    4     9     4 1
    5    11     4 1
    6    12     6 1
    7    13     9 1
    8    16     9 1
    9    25     5 1
   10    25    16 1
   11    26    10 1
   12    26    17 1
   13    27    18 1
   14    28    14 1
   15    28    19 1
   16    29    12 1
   17    30    13 1
   18    31    24 1
   19    32     1 1
   20    32    25 1
   21    33    21 1
   22    33    26 1
   23    34    22 1
   24    34    27 1
   25    35    23 1
   26    35    28 1
   27    36    12 1
   28    36    24 1
   29    37    13 1
   30    37    15 1
   31    38    31 1
   32    39    20 1
   33    39    32 1
   34    40     2 1
   35    40    33 1
   36    41     3 1
   37    41    34 1
   38    42     4 1
   39    42    35 1
   40    43    38 1
   41    44     5 1
   42    44    17 1
   43    44    39 1
   44    45    10 1
   45    45    18 1
   46    45    40 1
   47    46    19 1
   48    46    41 1
   49    47    14 1
   50    47    16 1
   51    47    42 1
   52    48    38 1
   53    49    48 1
   54    50    49 1
   55    51    50 1
   56    52    51 1
   57    53    51 1
   58    54    53 1
   59    55    54 1
   60    56    55 1
   61    57    56 1
   62    58    56 1
   63    59    58 1
   64    60    59 1
   65    61    60 1
   66    62    61 1
   67    63    61 1
   68    64    27 1
   69    64    46 1
   70    65     5 1
   71    65    10 1
   72    65    64 1
   73    65    14 1
   74    66    23 1
   75    67    23 1
   76    68    23 1
   77    69    22 1
   78    70    22 1
   79    71    22 1
   80    72    21 1
   81    73    21 1
   82    74    21 1
   83    75    20 1
   84    76    20 1
   85    77    20 1
   86    78    15 1
   87    79    15 1
   88    80    15 1
   89    81     8 1
   90    82     8 1
   91    83     8 1
   92    84     7 1
   93    85     7 1
   94    86     6 1
   95    87     6 1
   96    88     3 1
   97    89     3 1
   98    90     1 1
   99    91     1 1
  100    92    63 1
  101    93    63 1
  102    94    63 1
  103    95    62 1
  104    96    62 1
  105    97    62 1
  106    98    60 1
  107    99    60 1
  108   100    59 1
  109   101    59 1
  110   102    58 1
  111   103    58 1
  112   104    57 1
  113   105    57 1
  114   106    57 1
  115   107    55 1
  116   108    55 1
  117   109    54 1
  118   110    54 1
  119   111    53 1
  120   112    53 1
  121   113    19 1
  122   114    18 1
  123   115    17 1
  124   116     9 1
  125   117     2 1
  126   118    52 1
  127   119    52 1
  128   120    52 1
  129   121    51 1
  130   122    50 1
  131   123    50 1
  132   124    49 1
  133   125    49 1
  134   126    48 1
  135   127    48 1
  136   128    43 1
  137   129    43 1
  138   130    43 1
  139   131    39 1
  140   132    32 1
  141   133    31 1
  142   134    61 1
  143   135    56 1
  144   136    24 1
  145   137    24 1
  146   139   138 1
  147   140   139 1
  148   141   140 1
  149   142   140 1
  150   143   142 1
  151   144   138 1
  152   144   143 1
  153   145   144 1
  154   146   145 1
  155   147   146 1
  156   148   147 1
  157   149   148 1
  158   150   149 1
  159   151   150 1
  160   152   151 1
  161   153   152 1
  162   154   138 1
  163   155   138 1
  164   156   143 1
  165   157   147 1
  166   158   151 1
  167   160   159 1
  168   161   160 1
  169   162   161 1
  170   163   161 1
  171   164   163 1
  172   165   159 1
  173   165   164 1
  174   166   165 1
  175   167   166 1
  176   168   167 1
  177   169   168 1
  178   170   169 1
  179   171   170 1
  180   172   171 1
  181   173   172 1
  182   174   153 1
  183   174   173 1
  184   175   159 1
  185   176   159 1
  186   177   164 1
  187   178   168 1
  188   179   172 1
  189   180   179 1
  190   181   179 1
  191   182   179 1
  192   183   178 1
  193   184   178 1
  194   185   178 1
  195   186   177 1
  196   187   177 1
  197   188   177 1
  198   189   176 1
  199   190   176 1
  200   191   176 1
  201   192   175 1
  202   193   175 1
  203   194   175 1
  204   195   160 1
  205   196   160 1
  206   197   158 1
  207   198   158 1
  208   199   158 1
  209   200   157 1
  210   201   157 1
  211   202   157 1
  212   203   156 1
  213   204   156 1
  214   205   156 1
  215   206   155 1
  216   207   155 1
  217   208   155 1
  218   209   154 1
  219   210   154 1
  220   211   154 1
  221   212   141 1
  222   213   146 1
  223   214   145 1
  224   215   142 1
  225   216   142 1
  226   217   174 1
  227   218   173 1
  228   219   171 1
  229   220   170 1
  230   221   169 1
  231   222   140 1
  232   223   167 1
  233   224   166 1
  234   225   165 1
  235   226   163 1
  236   227   161 1
  237   228   139 1
  238   229   139 1
  239   230   153 1
  240   231   152 1
  241   232   150 1
  242   233   149 1
  243   234   148 1
  244   235   162 1
  245   65    153 1
  246   65    174 1
@<TRIPOS>SUBSTRUCTURE
      1 CLA               1 ****               0 ****  **** 
      2 LUT             138 ****               0 ****  **** 
