@<TRIPOS>MOLECULE
Cpptraj generated mol2 file.
  235   246     2     0     0
SMALL
USER_CHARGES


@<TRIPOS>ATOM
      1 CAA        76.9532   57.8230   33.5414 a2         1 CLA     -0.055900
      2 CAB        77.0954   61.5455   42.5681 c8         1 CLA     -0.148500
      3 CAC        70.4071   57.2441   42.2537 a2         1 CLA     -0.012600
      4 CAD        72.7999   55.2925   34.8379 ck         1 CLA      0.398800
      5 NA         76.0089   58.2233   36.9784 ns         1 CLA     -0.225500
      6 CBA        78.0959   57.5800   32.5921 a2         1 CLA     -0.135000
      7 CBB        78.1498   61.4764   43.4783 c0         1 CLA     -0.395200
      8 CBC        70.3770   55.7232   42.0261 a3         1 CLA     -0.037700
      9 CBD        74.2957   55.7229   34.4854 a1         1 CLA     -0.053900
     10 NB         75.9919   59.7244   39.5421 nm         1 CLA     -0.295700
     11 OBD        72.1079   54.6037   34.0776 o2         1 CLA     -0.494600
     12 CGA        78.5128   56.1450   32.2961 c4         1 CLA      0.827000
     13 CGD        75.2391   54.5513   34.3000 c4         1 CLA      0.655300
     14 ND         73.2758   57.3349   37.7224 nm         1 CLA     -0.291600
     15 CED        76.4156   53.1202   35.6186 a3         1 CLA      0.005400
     16 CHA        74.6385   56.7922   35.6032 cs         1 CLA     -0.123800
     17 CHB        77.8719   59.6051   37.9953 aa         1 CLA     -0.291900
     18 CHC        74.8052   59.7763   41.7121 aa         1 CLA     -0.090400
     19 CHD        71.4657   57.3456   39.2837 aa         1 CLA     -0.052000
     20 CMA        79.4079   57.5240   36.2727 a3         1 CLA     -0.230700
     21 CMB        79.3083   61.4724   40.1015 a3         1 CLA     -0.180800
     22 CMC        72.6643   58.9803   43.9681 a3         1 CLA     -0.134000
     23 CMD        70.1478   55.5718   36.9461 a3         1 CLA     -0.141100
     24 C1         79.3244   54.0480   33.2416 a2         1 CLA      0.023000
     25 C1A        75.8249   57.5403   35.8383 ac         1 CLA     -0.015100
     26 C1B        77.3067   60.0558   39.1730 cr         1 CLA      0.054700
     27 C1C        73.7199   58.9684   41.5289 cn         1 CLA     -0.005600
     28 C1D        71.9910   56.9876   38.0501 ap         1 CLA     -0.047300
     29 O1A        78.1398   55.5347   31.3381 o2         1 CLA     -0.610800
     30 O1D        75.9098   54.2725   33.3154 o2         1 CLA     -0.558200
     31 C2         79.8564   53.6479   34.6089 c8         1 CLA     -0.325100
     32 C2A        77.1335   57.4197   35.0395 a1         1 CLA      0.098600
     33 C2B        77.9109   60.9033   40.2298 cb         1 CLA      0.088500
     34 C2C        72.6815   58.5654   42.4864 cb         1 CLA      0.053700
     35 C2D        71.4450   56.2132   37.0710 cb         1 CLA      0.058900
     36 O2A        79.2752   55.5579   33.2874 o1         1 CLA     -0.437200
     37 O2D        75.2457   53.9754   35.5142 o1         1 CLA     -0.357600
     38 C3         80.7192   52.6443   34.8715 c5         1 CLA      0.031200
     39 C3A        78.1263   58.2822   35.8451 a1         1 CLA      0.166800
     40 C3B        76.9855   60.9277   41.2791 cb         1 CLA      0.035000
     41 C3C        71.7103   57.8628   41.7448 cb         1 CLA     -0.089900
     42 C3D        72.5017   55.9625   36.1352 cb         1 CLA     -0.035900
     43 C4         80.2996   51.2698   35.4120 a3         1 CLA     -0.053300
     44 C4A        77.3226   58.7129   37.0280 ac         1 CLA      0.001800
     45 C4B        75.8699   60.1693   40.8409 cn         1 CLA     -0.020900
     46 C4C        72.1458   57.8839   40.3797 cr         1 CLA     -0.044400
     47 C4D        73.5450   56.7688   36.4929 c6         1 CLA     -0.046000
     48 C5         82.1520   52.6879   34.4160 a2         1 CLA     -0.070400
     49 C6         82.8732   54.0067   34.5754 a2         1 CLA      0.043900
     50 C7         82.9198   54.3971   36.1338 a2         1 CLA     -0.150000
     51 C8         83.4078   55.8014   36.4143 a1         1 CLA      0.064200
     52 C9         84.7424   56.2424   35.7514 a3         1 CLA     -0.259300
     53 C10        83.4527   56.1521   37.9771 a2         1 CLA     -0.071900
     54 C11        82.1855   55.9261   38.8373 a2         1 CLA      0.014500
     55 C12        82.2704   56.6823   40.1773 a2         1 CLA     -0.112100
     56 C13        80.9791   56.6292   41.0671 a1         1 CLA      0.089200
     57 C14        79.8853   57.6280   40.6565 a3         1 CLA     -0.239100
     58 C15        81.2737   56.7404   42.6298 a2         1 CLA     -0.102200
     59 C16        81.9605   58.0261   43.1627 a2         1 CLA      0.023900
     60 C17        81.8369   58.2536   44.7056 a2         1 CLA     -0.105700
     61 C18        82.2917   59.5744   45.2522 a1         1 CLA      0.206800
     62 C19        83.8212   59.8098   45.0334 a3         1 CLA     -0.280100
     63 C20        81.4659   60.7613   44.7471 a3         1 CLA     -0.280100
     64 NC         73.3634   58.4597   40.2871 nx         1 CLA     -0.309200
     65 MG         74.6876   58.5964   38.6087 mg         1 CLA      0.895000
     66 HMD3       69.8994   55.2582   38.0355 dc         1 CLA      0.064300
     67 HMD2       69.4025   56.2466   36.6284 dc         1 CLA      0.064300
     68 HMD1       70.1032   54.6417   36.3552 dc         1 CLA      0.064300
     69 HMC3       71.8974   58.4688   44.6056 dc         1 CLA      0.052100
     70 HMC2       73.6131   59.0209   44.4623 dc         1 CLA      0.052100
     71 HMC1       72.2531   59.9984   43.8918 dc         1 CLA      0.052100
     72 HMB3       80.1057   60.7640   39.8929 dc         1 CLA      0.063600
     73 HMB2       79.3140   62.1832   39.2987 dc         1 CLA      0.063600
     74 HMB1       79.6326   62.0193   40.9902 dc         1 CLA      0.063600
     75 HMA3       79.8428   57.1953   35.3561 dc         1 CLA      0.058300
     76 HMA2       80.0901   58.2270   36.7426 dc         1 CLA      0.058300
     77 HMA1       79.2010   56.6558   36.8522 dc         1 CLA      0.058300
     78 HED3       76.4616   52.5518   36.5583 dc         1 CLA      0.079300
     79 HED2       76.5403   52.4972   34.6998 dc         1 CLA      0.079300
     80 HED1       77.3280   53.7599   35.6547 dc         1 CLA      0.079300
     81 HBC3       69.3998   55.3036   42.3795 dc         1 CLA      0.016300
     82 HBC2       70.6604   55.5863   41.0441 dc         1 CLA      0.016300
     83 HBC1       71.1569   55.1847   42.5176 dc         1 CLA      0.016300
     84 HBB2       78.1423   62.0091   44.4148 da         1 CLA      0.183000
     85 HBB1       79.0888   61.0119   43.2071 da         1 CLA      0.183000
     86 HBA2       77.9186   58.0476   31.6670 dc         1 CLA      0.029400
     87 HBA1       78.9793   58.0557   32.9237 dc         1 CLA      0.029400
     88 HAC2       70.3795   57.4453   43.3140 dc         1 CLA      0.029300
     89 HAC1       69.4643   57.6864   41.7152 dc         1 CLA      0.029300
     90 HAA2       76.1137   57.3543   33.1474 dc         1 CLA      0.028700
     91 HAA1       76.6415   58.8826   33.4301 dc         1 CLA      0.028700
     92 H203       81.7713   61.6202   45.3537 dc         1 CLA      0.065600
     93 H202       81.8179   60.8952   43.6887 dc         1 CLA      0.065600
     94 H201       80.3956   60.6336   44.8861 dc         1 CLA      0.065600
     95 H193       84.4373   58.9179   45.3741 dc         1 CLA      0.065600
     96 H192       84.0249   59.9053   43.9403 dc         1 CLA      0.065600
     97 H191       84.3066   60.6921   45.4871 dc         1 CLA      0.065600
     98 H172       80.8525   57.9511   44.9861 dc         1 CLA      0.027600
     99 H171       82.4450   57.5079   45.0963 dc         1 CLA      0.027600
    100 H162       82.9670   58.0147   42.7290 dc         1 CLA      0.002900
    101 H161       81.5419   58.8561   42.7409 dc         1 CLA      0.002900
    102 H152       80.3302   56.5297   43.2170 dc         1 CLA      0.029100
    103 H151       81.8760   55.8414   42.7725 dc         1 CLA      0.029100
    104 H143       80.2927   58.6108   40.7257 dc         1 CLA      0.063600
    105 H142       79.4869   57.3412   39.6849 dc         1 CLA      0.063600
    106 H141       78.9959   57.3876   41.2105 dc         1 CLA      0.063600
    107 H122       83.1519   56.3040   40.6869 dc         1 CLA      0.032500
    108 H121       82.5269   57.7201   39.9126 dc         1 CLA      0.032500
    109 H112       81.4639   56.4300   38.2798 dc         1 CLA      0.006600
    110 H111       81.9094   54.8545   38.8499 dc         1 CLA      0.006600
    111 H102       84.1150   55.4934   38.4235 dc         1 CLA      0.024100
    112 H101       83.7804   57.2049   38.0470 dc         1 CLA      0.024100
    113 HHD        70.4898   56.9872   39.4620 da         1 CLA      0.174300
    114 HHC        74.7982   60.4383   42.5796 da         1 CLA      0.136800
    115 HHB        78.9430   59.8986   37.9013 da         1 CLA      0.138300
    116 HBD        74.2430   56.1736   33.4672 dc         1 CLA      0.107700
    117 HAB        76.0923   62.0051   42.8802 da         1 CLA      0.155200
    118 H93        85.5147   55.8694   36.4128 dc         1 CLA      0.069500
    119 H92        84.8251   55.9242   34.8178 dc         1 CLA      0.069500
    120 H91        84.7935   57.3056   35.6994 dc         1 CLA      0.069500
    121 H8         82.6297   56.4666   36.1029 dc         1 CLA      0.029300
    122 H72        81.8941   54.3544   36.5380 dc         1 CLA      0.044400
    123 H71        83.5722   53.7072   36.6501 dc         1 CLA      0.044400
    124 H62        83.8712   53.9674   34.0944 dc         1 CLA      0.015600
    125 H61        82.2925   54.7547   34.0901 dc         1 CLA      0.015600
    126 H52        82.7445   51.8878   34.8863 dc         1 CLA      0.033200
    127 H51        82.1151   52.5119   33.3696 dc         1 CLA      0.033200
    128 H43        80.8510   51.0008   36.2995 dc         1 CLA      0.037000
    129 H42        79.2417   51.2272   35.6460 dc         1 CLA      0.037000
    130 H41        80.4453   50.5980   34.6036 dc         1 CLA      0.037000
    131 H3A        78.3155   59.2385   35.2486 dc         1 CLA      0.041100
    132 H2A        77.3680   56.3652   35.1511 dc         1 CLA      0.083100
    133 H2         79.7289   54.3800   35.3915 da         1 CLA      0.180900
    134 H18        82.2406   59.5107   46.3416 dc         1 CLA     -0.003900
    135 H13        80.4115   55.6725   40.9535 dc         1 CLA      0.019700
    136 H12        78.3685   53.5576   32.9127 dc         1 CLA      0.120400
    137 H11        80.0689   53.6068   32.5559 dc         1 CLA      0.120400
    138 C1         67.0024   60.8700   49.5012 Z1         2 LUT      0.509236
    139 C2         67.1989   62.1076   50.4309 Z2         2 LUT     -0.434695
    140 C3         66.0017   63.0952   50.6495 Z3         2 LUT      0.437453
    141 O3         66.5622   64.3870   50.9940 S1         2 LUT     -0.547129
    142 C4         65.1086   63.0752   49.3990 Z4         2 LUT     -0.468603
    143 C5         65.6810   62.4983   48.0840 Z5         2 LUT      0.279246
    144 C6         66.5338   61.4017   48.0978 Z6         2 LUT     -0.305473
    145 C7         67.3493   61.0799   46.9446 Z7         2 LUT      0.069402
    146 C8         68.3589   61.7675   46.4215 Z8         2 LUT     -0.191631
    147 C9         69.1248   61.6809   45.1619 Z9         2 LUT      0.196698
    148 C10        70.0990   62.5797   44.7029 Y1         2 LUT     -0.208611
    149 C11        70.7575   62.5553   43.4387 Y2         2 LUT      0.030784
    150 C12        71.8120   63.3390   43.1595 Y3         2 LUT     -0.220316
    151 C13        72.6707   63.1889   41.9864 Y4         2 LUT      0.215937
    152 C14        73.9251   63.8471   41.9423 Y5         2 LUT     -0.185793
    153 C15        74.9770   63.8019   40.9347 Y6         2 LUT     -0.057835
    154 C16        65.8842   60.1211   50.2802 Y7         2 LUT     -0.405615
    155 C17        68.2895   59.9739   49.5929 Y7         2 LUT     -0.405615
    156 C18        65.5468   63.4661   46.9453 Y9         2 LUT     -0.369639
    157 C19        68.6770   60.5093   44.2973 W1         2 LUT     -0.333362
    158 C20        72.0667   62.5817   40.7078 W2         2 LUT     -0.323439
    159 C21        86.1410   64.0137   34.3118 Z1         2 LUT      0.406104
    160 C22        86.7941   63.4921   33.0714 Z2         2 LUT     -0.404965
    161 C23        87.1730   64.5390   32.0097 Z3         2 LUT      0.391255
    162 O23        87.7542   63.8865   30.8575 S1         2 LUT     -0.528210
    163 C24        86.0191   65.6245   31.8305 W6         2 LUT     -0.258361
    164 C25        84.9781   65.8185   32.6813 Z5         2 LUT      0.133546
    165 C26        84.8593   64.9614   33.8819 W8         2 LUT     -0.147008
    166 C27        84.2246   65.6206   35.1324 Z7         2 LUT      0.023843
    167 C28        83.1329   65.1501   35.8232 Z8         2 LUT     -0.216987
    168 C29        82.5229   65.5369   37.0367 Z9         2 LUT      0.206524
    169 C30        81.3910   64.8546   37.4464 Y1         2 LUT     -0.215556
    170 C31        80.5370   65.2110   38.5129 Y2         2 LUT      0.025142
    171 C32        79.2919   64.7419   38.7511 Y3         2 LUT     -0.212209
    172 C33        78.4566   65.0448   39.8909 Y4         2 LUT      0.240937
    173 C34        77.3094   64.3901   40.0062 Y5         2 LUT     -0.218862
    174 C35        76.2326   64.4717   40.9798 Y6         2 LUT     -0.023547
    175 C36        87.2034   65.0047   34.9740 Y7         2 LUT     -0.393485
    176 C37        85.8507   62.8855   35.4288 Y7         2 LUT     -0.393485
    177 C38        83.7234   66.6905   32.3161 Y9         2 LUT     -0.387526
    178 C39        83.0236   66.7189   37.7466 W1         2 LUT     -0.322618
    179 C40        79.0120   65.9041   41.0029 W2         2 LUT     -0.358472
    180 H403       78.3326   66.3145   41.6781 R7         2 LUT      0.097720
    181 H402       79.7956   65.4573   41.6517 R7         2 LUT      0.097720
    182 H401       79.3756   66.8250   40.6150 R7         2 LUT      0.097720
    183 H393       82.1711   67.2520   38.2920 R4         2 LUT      0.082505
    184 H392       83.8313   66.5358   38.4544 R4         2 LUT      0.082505
    185 H391       83.3435   67.5002   36.9979 R4         2 LUT      0.082505
    186 H383       83.6645   66.8110   31.2085 R1         2 LUT      0.104030
    187 H382       82.8378   66.3539   32.7589 R1         2 LUT      0.104030
    188 H381       83.9826   67.6660   32.6920 R1         2 LUT      0.104030
    189 H373       85.0176   62.2099   35.0967 T4         2 LUT      0.089537
    190 H372       86.7793   62.3194   35.5193 T4         2 LUT      0.089537
    191 H371       85.6004   63.4459   36.3460 T4         2 LUT      0.089537
    192 H363       88.1244   64.5644   35.3659 T4         2 LUT      0.089537
    193 H362       87.5415   65.8205   34.3783 T4         2 LUT      0.089537
    194 H361       86.7681   65.6252   35.7864 T4         2 LUT      0.089537
    195 H222       87.6680   62.8072   33.3024 U2         2 LUT      0.127376
    196 H221       86.0147   62.7454   32.7915 U2         2 LUT      0.127376
    197 H203       70.9838   62.6562   40.6407 R7         2 LUT      0.087068
    198 H202       72.5319   63.0624   39.8869 R7         2 LUT      0.087068
    199 H201       72.3081   61.4915   40.4093 R7         2 LUT      0.087068
    200 H193       68.2732   59.6002   44.7554 R4         2 LUT      0.089716
    201 H192       68.0621   60.7629   43.4508 R4         2 LUT      0.089716
    202 H191       69.6726   60.0983   43.9616 R4         2 LUT      0.089716
    203 H183       66.2462   64.3046   46.9013 R1         2 LUT      0.094572
    204 H182       65.6538   62.8431   46.0960 R1         2 LUT      0.094572
    205 H181       64.4802   63.7366   46.9775 R1         2 LUT      0.094572
    206 H173       69.0662   60.6461   49.2339 T4         2 LUT      0.093752
    207 H172       68.5983   59.7638   50.6558 T4         2 LUT      0.093752
    208 H171       68.2569   59.0746   49.0594 T4         2 LUT      0.093752
    209 H163       64.9307   60.6298   50.0868 T4         2 LUT      0.093752
    210 H162       65.8744   59.1154   49.9482 T4         2 LUT      0.093752
    211 H161       66.1192   60.1486   51.3194 T4         2 LUT      0.093752
    212 HO3        65.8935   64.9177   51.3721 Q1         2 LUT      0.300121
    213 H8         68.5661   62.7446   46.8584 U7         2 LUT      0.080784
    214 H7         66.9200   60.2496   46.4741 U6         2 LUT      0.042190
    215 H42        64.1206   62.5678   49.5805 U5         2 LUT      0.145166
    216 H41        64.6624   64.0802   49.1649 U5         2 LUT      0.145166
    217 H35        76.4774   65.1343   41.8673 T3         2 LUT      0.077919
    218 H34        77.1519   63.5324   39.3219 T2         2 LUT      0.073626
    219 H32        78.8387   63.9933   38.0886 T1         2 LUT      0.092510
    220 H31        80.9303   65.9323   39.2363 U9         2 LUT      0.070048
    221 H30        81.0291   63.9866   36.8832 U8         2 LUT      0.085442
    222 H3         65.4636   62.6445   51.4810 U3         2 LUT     -0.031596
    223 H28        82.7544   64.2566   35.3288 U7         2 LUT      0.084728
    224 H27        84.6419   66.5390   35.4214 U6         2 LUT      0.087291
    225 H26        84.1257   64.1907   33.5277 Q6         2 LUT      0.075325
    226 H24        85.8061   66.1297   30.8548 Q5         2 LUT      0.094482
    227 H23        88.1780   65.0145   32.4518 U3         2 LUT     -0.024869
    228 H22        67.4673   61.7574   51.4516 U2         2 LUT      0.127376
    229 H21        68.0260   62.6877   50.0979 U2         2 LUT      0.127376
    230 H15        74.6710   63.2493   40.1061 T3         2 LUT      0.093200
    231 H14        74.2754   64.4077   42.8019 T2         2 LUT      0.068865
    232 H12        72.1661   63.9884   43.9529 T1         2 LUT      0.095507
    233 H11        70.3302   61.8812   42.6879 U9         2 LUT      0.068930
    234 H10        70.3818   63.3254   45.3873 U8         2 LUT      0.083911
    235 H1         87.1101   63.7247   30.1159 Q1         2 LUT      0.297311
@<TRIPOS>BOND
    1     6     1 1
    2     7     2 1
    3     8     3 1
    4     9     4 1
    5    11     4 1
    6    12     6 1
    7    13     9 1
    8    16     9 1
    9    25     5 1
   10    25    16 1
   11    26    10 1
   12    26    17 1
   13    27    18 1
   14    28    14 1
   15    28    19 1
   16    29    12 1
   17    30    13 1
   18    31    24 1
   19    32     1 1
   20    32    25 1
   21    33    21 1
   22    33    26 1
   23    34    22 1
   24    34    27 1
   25    35    23 1
   26    35    28 1
   27    36    12 1
   28    36    24 1
   29    37    13 1
   30    37    15 1
   31    38    31 1
   32    39    20 1
   33    39    32 1
   34    40     2 1
   35    40    33 1
   36    41     3 1
   37    41    34 1
   38    42     4 1
   39    42    35 1
   40    43    38 1
   41    44     5 1
   42    44    17 1
   43    44    39 1
   44    45    10 1
   45    45    18 1
   46    45    40 1
   47    46    19 1
   48    46    41 1
   49    47    14 1
   50    47    16 1
   51    47    42 1
   52    48    38 1
   53    49    48 1
   54    50    49 1
   55    51    50 1
   56    52    51 1
   57    53    51 1
   58    54    53 1
   59    55    54 1
   60    56    55 1
   61    57    56 1
   62    58    56 1
   63    59    58 1
   64    60    59 1
   65    61    60 1
   66    62    61 1
   67    63    61 1
   68    64    27 1
   69    64    46 1
   70    65     5 1
   71    65    10 1
   72    65    64 1
   73    65    14 1
   74    66    23 1
   75    67    23 1
   76    68    23 1
   77    69    22 1
   78    70    22 1
   79    71    22 1
   80    72    21 1
   81    73    21 1
   82    74    21 1
   83    75    20 1
   84    76    20 1
   85    77    20 1
   86    78    15 1
   87    79    15 1
   88    80    15 1
   89    81     8 1
   90    82     8 1
   91    83     8 1
   92    84     7 1
   93    85     7 1
   94    86     6 1
   95    87     6 1
   96    88     3 1
   97    89     3 1
   98    90     1 1
   99    91     1 1
  100    92    63 1
  101    93    63 1
  102    94    63 1
  103    95    62 1
  104    96    62 1
  105    97    62 1
  106    98    60 1
  107    99    60 1
  108   100    59 1
  109   101    59 1
  110   102    58 1
  111   103    58 1
  112   104    57 1
  113   105    57 1
  114   106    57 1
  115   107    55 1
  116   108    55 1
  117   109    54 1
  118   110    54 1
  119   111    53 1
  120   112    53 1
  121   113    19 1
  122   114    18 1
  123   115    17 1
  124   116     9 1
  125   117     2 1
  126   118    52 1
  127   119    52 1
  128   120    52 1
  129   121    51 1
  130   122    50 1
  131   123    50 1
  132   124    49 1
  133   125    49 1
  134   126    48 1
  135   127    48 1
  136   128    43 1
  137   129    43 1
  138   130    43 1
  139   131    39 1
  140   132    32 1
  141   133    31 1
  142   134    61 1
  143   135    56 1
  144   136    24 1
  145   137    24 1
  146   139   138 1
  147   140   139 1
  148   141   140 1
  149   142   140 1
  150   143   142 1
  151   144   138 1
  152   144   143 1
  153   145   144 1
  154   146   145 1
  155   147   146 1
  156   148   147 1
  157   149   148 1
  158   150   149 1
  159   151   150 1
  160   152   151 1
  161   153   152 1
  162   154   138 1
  163   155   138 1
  164   156   143 1
  165   157   147 1
  166   158   151 1
  167   160   159 1
  168   161   160 1
  169   162   161 1
  170   163   161 1
  171   164   163 1
  172   165   159 1
  173   165   164 1
  174   166   165 1
  175   167   166 1
  176   168   167 1
  177   169   168 1
  178   170   169 1
  179   171   170 1
  180   172   171 1
  181   173   172 1
  182   174   153 1
  183   174   173 1
  184   175   159 1
  185   176   159 1
  186   177   164 1
  187   178   168 1
  188   179   172 1
  189   180   179 1
  190   181   179 1
  191   182   179 1
  192   183   178 1
  193   184   178 1
  194   185   178 1
  195   186   177 1
  196   187   177 1
  197   188   177 1
  198   189   176 1
  199   190   176 1
  200   191   176 1
  201   192   175 1
  202   193   175 1
  203   194   175 1
  204   195   160 1
  205   196   160 1
  206   197   158 1
  207   198   158 1
  208   199   158 1
  209   200   157 1
  210   201   157 1
  211   202   157 1
  212   203   156 1
  213   204   156 1
  214   205   156 1
  215   206   155 1
  216   207   155 1
  217   208   155 1
  218   209   154 1
  219   210   154 1
  220   211   154 1
  221   212   141 1
  222   213   146 1
  223   214   145 1
  224   215   142 1
  225   216   142 1
  226   217   174 1
  227   218   173 1
  228   219   171 1
  229   220   170 1
  230   221   169 1
  231   222   140 1
  232   223   167 1
  233   224   166 1
  234   225   165 1
  235   226   163 1
  236   227   161 1
  237   228   139 1
  238   229   139 1
  239   230   153 1
  240   231   152 1
  241   232   150 1
  242   233   149 1
  243   234   148 1
  244   235   162 1
  245   65    153 1
  246   65    174 1
@<TRIPOS>SUBSTRUCTURE
      1 CLA               1 ****               0 ****  **** 
      2 LUT             138 ****               0 ****  **** 
