@<TRIPOS>MOLECULE
Cpptraj generated mol2 file.
  235   246     2     0     0
SMALL
USER_CHARGES


@<TRIPOS>ATOM
      1 CAA        77.5562   57.9159   34.5019 a2         1 CLA     -0.055900
      2 CAB        77.8927   62.3039   43.2832 c8         1 CLA     -0.148500
      3 CAC        71.1216   57.9675   43.3705 a2         1 CLA     -0.012600
      4 CAD        73.6025   55.3059   36.0838 ck         1 CLA      0.398800
      5 NA         76.5566   58.7714   37.8000 ns         1 CLA     -0.225500
      6 CBA        78.7474   57.9489   33.5306 a2         1 CLA     -0.135000
      7 CBB        79.0918   62.1244   43.9466 c0         1 CLA     -0.395200
      8 CBC        71.0525   56.4416   43.2888 a3         1 CLA     -0.037700
      9 CBD        75.1220   55.7535   35.7779 a1         1 CLA     -0.053900
     10 NB         76.4451   60.4437   40.3076 nm         1 CLA     -0.295700
     11 OBD        73.0301   54.4573   35.4240 o2         1 CLA     -0.494600
     12 CGA        79.4551   56.6361   33.1874 c4         1 CLA      0.827000
     13 CGD        76.0997   54.6631   35.9214 c4         1 CLA      0.655300
     14 ND         73.8664   57.7378   38.5313 nm         1 CLA     -0.291600
     15 CED        76.3616   52.5191   36.9819 a3         1 CLA      0.005400
     16 CHA        75.3899   56.9604   36.7055 cs         1 CLA     -0.123800
     17 CHB        78.3013   60.3279   38.6931 aa         1 CLA     -0.291900
     18 CHC        75.2427   60.7784   42.3937 aa         1 CLA     -0.090400
     19 CHD        72.1161   57.6410   40.2448 aa         1 CLA     -0.052000
     20 CMA        80.1125   58.3834   37.1129 a3         1 CLA     -0.230700
     21 CMB        79.7177   62.2859   40.6873 a3         1 CLA     -0.180800
     22 CMC        73.2910   59.9505   44.6995 a3         1 CLA     -0.134000
     23 CMD        70.8562   55.5757   38.1466 a3         1 CLA     -0.141100
     24 C1         80.4129   54.6793   34.2229 a2         1 CLA      0.023000
     25 C1A        76.4704   57.8108   36.7811 ac         1 CLA     -0.015100
     26 C1B        77.7045   60.7625   39.8895 cr         1 CLA      0.054700
     27 C1C        74.1173   59.8963   42.2214 cn         1 CLA     -0.005600
     28 C1D        72.6068   57.2522   38.9808 ap         1 CLA     -0.047300
     29 O1A        79.6259   56.1312   32.0602 o2         1 CLA     -0.610800
     30 O1D        77.1391   54.5086   35.2257 o2         1 CLA     -0.558200
     31 C2         80.2911   53.9385   35.5123 c8         1 CLA     -0.325100
     32 C2A        77.7783   57.7251   35.9774 a1         1 CLA      0.098600
     33 C2B        78.3312   61.6191   40.8196 cb         1 CLA      0.088500
     34 C2C        73.1772   59.5315   43.2359 cb         1 CLA      0.053700
     35 C2D        72.1173   56.3024   38.0863 cb         1 CLA      0.058900
     36 O2A        79.8917   56.0347   34.3637 o1         1 CLA     -0.437200
     37 O2D        75.7041   53.7877   36.9211 o1         1 CLA     -0.357600
     38 C3         81.2961   53.7577   36.3566 c5         1 CLA      0.031200
     39 C3A        78.6731   58.8058   36.6850 a1         1 CLA      0.166800
     40 C3B        77.5596   61.6534   41.9139 cb         1 CLA      0.035000
     41 C3C        72.2887   58.6409   42.6434 cb         1 CLA     -0.089900
     42 C3D        73.2035   56.0426   37.2080 cb         1 CLA     -0.035900
     43 C4         82.1869   52.5267   36.2506 a3         1 CLA     -0.053300
     44 C4A        77.8260   59.3398   37.8258 ac         1 CLA      0.001800
     45 C4B        76.3061   60.9686   41.5454 cn         1 CLA     -0.020900
     46 C4C        72.6852   58.5061   41.2183 cr         1 CLA     -0.044400
     47 C4D        74.2895   56.9715   37.5341 c6         1 CLA     -0.046000
     48 C5         81.6040   54.7896   37.4969 a2         1 CLA     -0.070400
     49 C6         82.8775   54.6765   38.3619 a2         1 CLA      0.043900
     50 C7         82.9321   55.7416   39.4884 a2         1 CLA     -0.150000
     51 C8         83.3189   57.1971   39.0714 a1         1 CLA      0.064200
     52 C9         84.6194   57.2639   38.2854 a3         1 CLA     -0.259300
     53 C10        83.3076   58.1472   40.3644 a2         1 CLA     -0.071900
     54 C11        82.0852   58.3464   41.2931 a2         1 CLA      0.014500
     55 C12        82.3361   59.4521   42.2314 a2         1 CLA     -0.112100
     56 C13        83.5076   59.3399   43.3007 a1         1 CLA      0.089200
     57 C14        83.4859   58.1101   44.2751 a3         1 CLA     -0.239100
     58 C15        83.4790   60.7329   44.0089 a2         1 CLA     -0.102200
     59 C16        82.4994   60.8424   45.1572 a2         1 CLA      0.023900
     60 C17        82.4905   62.1991   45.8062 a2         1 CLA     -0.105700
     61 C18        83.8580   62.7358   46.3937 a1         1 CLA      0.206800
     62 C19        83.7568   64.1421   47.0589 a3         1 CLA     -0.280100
     63 C20        84.5405   61.8133   47.4749 a3         1 CLA     -0.280100
     64 NC         73.8742   59.2182   41.0386 nx         1 CLA     -0.309200
     65 MG         75.0761   59.1696   39.3035 mg         1 CLA      0.895000
     66 HMD3       70.7904   55.2315   39.1615 dc         1 CLA      0.064300
     67 HMD2       70.0114   56.2528   38.0382 dc         1 CLA      0.064300
     68 HMD1       70.8560   54.7314   37.4080 dc         1 CLA      0.064300
     69 HMC3       73.3753   59.0407   45.2770 dc         1 CLA      0.052100
     70 HMC2       74.1352   60.6430   44.9643 dc         1 CLA      0.052100
     71 HMC1       72.3504   60.4638   45.0476 dc         1 CLA      0.052100
     72 HMB3       79.9401   62.6961   39.6593 dc         1 CLA      0.063600
     73 HMB2       79.7771   63.1353   41.4052 dc         1 CLA      0.063600
     74 HMB1       80.4408   61.5249   40.9366 dc         1 CLA      0.063600
     75 HMA3       80.4992   57.7475   36.3167 dc         1 CLA      0.058300
     76 HMA2       80.8465   59.1354   37.2687 dc         1 CLA      0.058300
     77 HMA1       79.9442   57.7984   38.0182 dc         1 CLA      0.058300
     78 HED3       76.0800   51.7992   36.1062 dc         1 CLA      0.079300
     79 HED2       77.4389   52.6995   36.9453 dc         1 CLA      0.079300
     80 HED1       76.0278   52.1263   37.9324 dc         1 CLA      0.079300
     81 HBC3       71.3708   56.0583   42.3145 dc         1 CLA      0.016300
     82 HBC2       71.7425   56.1643   44.0633 dc         1 CLA      0.016300
     83 HBC1       70.0393   56.0857   43.4320 dc         1 CLA      0.016300
     84 HBB2       79.1798   62.2783   45.0505 da         1 CLA      0.183000
     85 HBB1       79.9903   61.6327   43.5101 da         1 CLA      0.183000
     86 HBA2       78.4335   58.2580   32.5506 dc         1 CLA      0.029400
     87 HBA1       79.5369   58.5286   33.9843 dc         1 CLA      0.029400
     88 HAC2       71.1928   58.2238   44.4618 dc         1 CLA      0.029300
     89 HAC1       70.1634   58.3707   43.0098 dc         1 CLA      0.029300
     90 HAA2       77.0502   57.0808   34.0724 dc         1 CLA      0.028700
     91 HAA1       77.0451   58.8900   34.3164 dc         1 CLA      0.028700
     92 H203       83.9796   61.6147   48.3591 dc         1 CLA      0.065600
     93 H202       84.6698   60.9394   46.9182 dc         1 CLA      0.065600
     94 H201       85.4637   62.3927   47.7553 dc         1 CLA      0.065600
     95 H193       83.5047   64.9159   46.3693 dc         1 CLA      0.065600
     96 H192       83.0059   64.1543   47.8933 dc         1 CLA      0.065600
     97 H191       84.7433   64.5346   47.4504 dc         1 CLA      0.065600
     98 H172       81.8956   62.8898   45.1797 dc         1 CLA      0.027600
     99 H171       81.8432   62.1070   46.6663 dc         1 CLA      0.027600
    100 H162       81.5098   60.5873   44.7956 dc         1 CLA      0.002900
    101 H161       82.7307   60.1345   45.9501 dc         1 CLA      0.002900
    102 H152       84.3923   60.7286   44.5240 dc         1 CLA      0.029100
    103 H151       83.5913   61.5695   43.3102 dc         1 CLA      0.029100
    104 H143       82.6126   58.1144   44.9428 dc         1 CLA      0.063600
    105 H142       83.5447   57.2460   43.6705 dc         1 CLA      0.063600
    106 H141       84.3837   58.3033   44.9106 dc         1 CLA      0.063600
    107 H122       82.3890   60.3438   41.6000 dc         1 CLA      0.032500
    108 H121       81.3713   59.5852   42.6957 dc         1 CLA      0.032500
    109 H112       81.2110   58.6650   40.6769 dc         1 CLA      0.006600
    110 H111       81.9029   57.3656   41.7917 dc         1 CLA      0.006600
    111 H102       84.0606   57.7705   40.9892 dc         1 CLA      0.024100
    112 H101       83.6032   59.1215   39.9238 dc         1 CLA      0.024100
    113 HHD        71.1612   57.2927   40.5549 da         1 CLA      0.174300
    114 HHC        75.2998   61.2962   43.3488 da         1 CLA      0.136800
    115 HHB        79.2726   60.7402   38.4820 da         1 CLA      0.138300
    116 HBD        75.0533   56.1013   34.7711 dc         1 CLA      0.107700
    117 HAB        77.0532   62.7437   43.8468 da         1 CLA      0.155200
    118 H93        85.4180   56.7704   38.8556 dc         1 CLA      0.069500
    119 H92        84.4661   56.8391   37.2596 dc         1 CLA      0.069500
    120 H91        84.9528   58.3330   38.1427 dc         1 CLA      0.069500
    121 H8         82.6586   57.6473   38.2973 dc         1 CLA      0.029300
    122 H72        81.9456   55.7040   39.9125 dc         1 CLA      0.044400
    123 H71        83.6034   55.4667   40.3056 dc         1 CLA      0.044400
    124 H62        82.6997   53.7633   38.7843 dc         1 CLA      0.015600
    125 H61        83.8194   54.6770   37.7316 dc         1 CLA      0.015600
    126 H52        81.8203   55.7239   37.0132 dc         1 CLA      0.033200
    127 H51        80.7855   54.8680   38.1834 dc         1 CLA      0.033200
    128 H43        83.1696   52.7178   35.8739 dc         1 CLA      0.037000
    129 H42        82.2518   51.9995   37.0835 dc         1 CLA      0.037000
    130 H41        81.7696   51.8726   35.4907 dc         1 CLA      0.037000
    131 H3A        78.6452   59.6386   35.8840 dc         1 CLA      0.041100
    132 H2A        78.2442   56.7849   36.3192 dc         1 CLA      0.083100
    133 H2         79.2933   53.5470   35.7301 da         1 CLA      0.180900
    134 H18        84.5336   62.8050   45.5316 dc         1 CLA     -0.003900
    135 H13        84.4546   59.3118   42.8176 dc         1 CLA      0.019700
    136 H12        79.9400   54.0888   33.5431 dc         1 CLA      0.120400
    137 H11        81.4383   54.7178   33.8847 dc         1 CLA      0.120400
    138 C1         67.5244   62.7263   50.6997 Z1         2 LUT      0.509236
    139 C2         67.3678   64.1418   51.3424 Z2         2 LUT     -0.434695
    140 C3         66.0235   64.8083   51.1230 Z3         2 LUT      0.437453
    141 O3         66.2183   66.2244   51.2212 S1         2 LUT     -0.547129
    142 C4         65.3304   64.4131   49.8792 Z4         2 LUT     -0.468603
    143 C5         66.1554   63.7648   48.8439 Z5         2 LUT      0.279246
    144 C6         67.1410   62.9317   49.1654 Z6         2 LUT     -0.305473
    145 C7         68.0677   62.3739   48.0962 Z7         2 LUT      0.069402
    146 C8         68.8326   63.0266   47.1331 Z8         2 LUT     -0.191631
    147 C9         69.5132   62.3528   46.0595 Z9         2 LUT      0.196698
    148 C10        70.2130   63.1504   45.2226 Y1         2 LUT     -0.208611
    149 C11        71.0257   62.9190   44.1151 Y2         2 LUT      0.030784
    150 C12        71.9171   63.8435   43.6032 Y3         2 LUT     -0.220316
    151 C13        72.7468   63.6461   42.4280 Y4         2 LUT      0.215937
    152 C14        73.8937   64.3419   42.3869 Y5         2 LUT     -0.185793
    153 C15        74.9688   64.1786   41.4332 Y6         2 LUT     -0.057835
    154 C16        66.4045   61.7291   51.3400 Y7         2 LUT     -0.405615
    155 C17        68.9751   62.2986   50.8694 Y7         2 LUT     -0.405615
    156 C18        65.8406   64.3048   47.4721 Y9         2 LUT     -0.369639
    157 C19        69.5956   60.8434   45.8653 W1         2 LUT     -0.333362
    158 C20        72.0840   62.9499   41.2977 W2         2 LUT     -0.323439
    159 C21        86.1186   65.6309   34.8970 Z1         2 LUT      0.406104
    160 C22        86.8902   65.0352   33.6759 Z2         2 LUT     -0.404965
    161 C23        87.1196   66.0333   32.4861 Z3         2 LUT      0.391255
    162 O23        87.7407   65.2276   31.3676 S1         2 LUT     -0.528210
    163 C24        85.7482   66.7394   32.2223 W6         2 LUT     -0.258361
    164 C25        84.6579   66.6635   33.0458 Z5         2 LUT      0.133546
    165 C26        84.5912   65.9511   34.4550 W8         2 LUT     -0.147008
    166 C27        83.8217   66.7144   35.4490 Z7         2 LUT      0.023843
    167 C28        82.8074   66.1252   36.1796 Z8         2 LUT     -0.216987
    168 C29        82.1782   66.6125   37.4493 Z9         2 LUT      0.206524
    169 C30        81.0634   65.8705   37.9680 Y1         2 LUT     -0.215556
    170 C31        80.2671   66.1909   39.0997 Y2         2 LUT      0.025142
    171 C32        79.2124   65.3838   39.5030 Y3         2 LUT     -0.212209
    172 C33        78.2793   65.6338   40.5756 Y4         2 LUT      0.240937
    173 C34        77.0961   64.9167   40.5971 Y5         2 LUT     -0.218862
    174 C35        76.0679   65.0433   41.5285 Y6         2 LUT     -0.023547
    175 C36        86.9854   66.7556   35.5017 Y7         2 LUT     -0.393485
    176 C37        86.1530   64.5524   36.0757 Y7         2 LUT     -0.393485
    177 C38        83.3962   67.2246   32.4904 Y9         2 LUT     -0.387526
    178 C39        82.7078   67.9189   38.0205 W1         2 LUT     -0.322618
    179 C40        78.6261   66.5710   41.6517 W2         2 LUT     -0.358472
    180 H403       79.7340   66.5526   41.8360 R7         2 LUT      0.097720
    181 H402       78.2922   67.5951   41.4806 R7         2 LUT      0.097720
    182 H401       78.2160   66.3053   42.5701 R7         2 LUT      0.097720
    183 H393       82.3162   68.8382   37.5128 R4         2 LUT      0.082505
    184 H392       82.4360   67.9871   39.0278 R4         2 LUT      0.082505
    185 H391       83.8520   67.9431   38.0063 R4         2 LUT      0.082505
    186 H383       82.6728   67.5244   33.2343 R1         2 LUT      0.104030
    187 H382       83.6135   68.1084   31.8946 R1         2 LUT      0.104030
    188 H381       82.8431   66.5356   31.7562 R1         2 LUT      0.104030
    189 H373       85.6778   65.1670   36.8905 T4         2 LUT      0.089537
    190 H372       85.6233   63.6949   35.8240 T4         2 LUT      0.089537
    191 H371       87.1913   64.3809   36.3068 T4         2 LUT      0.089537
    192 H363       87.2391   67.5182   34.8041 T4         2 LUT      0.089537
    193 H362       86.3319   67.2112   36.2946 T4         2 LUT      0.089537
    194 H361       87.8631   66.3197   35.9831 T4         2 LUT      0.089537
    195 H222       87.8860   64.6475   34.0104 U2         2 LUT      0.127376
    196 H221       86.2892   64.2111   33.3106 U2         2 LUT      0.127376
    197 H203       72.4893   63.4781   40.4495 R7         2 LUT      0.087068
    198 H202       72.3619   61.9479   41.2765 R7         2 LUT      0.087068
    199 H201       71.0798   62.8261   41.3526 R7         2 LUT      0.087068
    200 H193       70.2701   60.4500   45.2243 R4         2 LUT      0.089716
    201 H192       69.8068   60.2505   46.7605 R4         2 LUT      0.089716
    202 H191       68.5791   60.4722   45.5402 R4         2 LUT      0.089716
    203 H183       64.7512   64.3241   47.2848 R1         2 LUT      0.094572
    204 H182       66.3487   65.3183   47.3266 R1         2 LUT      0.094572
    205 H181       66.2517   63.7100   46.6695 R1         2 LUT      0.094572
    206 H173       69.1798   61.2331   50.4981 T4         2 LUT      0.093752
    207 H172       69.5628   63.0433   50.3438 T4         2 LUT      0.093752
    208 H171       69.2065   62.2844   51.9629 T4         2 LUT      0.093752
    209 H163       66.6238   60.6410   50.9859 T4         2 LUT      0.093752
    210 H162       66.3298   61.8558   52.4620 T4         2 LUT      0.093752
    211 H161       65.3873   61.9206   51.0186 T4         2 LUT      0.093752
    212 HO3        65.3930   66.6672   51.4298 Q1         2 LUT      0.300121
    213 H8         68.5905   64.0447   46.9583 U7         2 LUT      0.080784
    214 H7         68.1779   61.3232   48.2462 U6         2 LUT      0.042190
    215 H42        64.4793   63.7601   50.1189 U5         2 LUT      0.145166
    216 H41        64.8563   65.2284   49.3895 U5         2 LUT      0.145166
    217 H35        76.0539   65.9010   42.2112 T3         2 LUT      0.077919
    218 H34        77.0217   64.1553   39.7650 T2         2 LUT      0.073626
    219 H32        79.0207   64.5636   38.8428 T1         2 LUT      0.092510
    220 H31        80.4922   67.1003   39.6027 U9         2 LUT      0.070048
    221 H30        80.7151   65.0340   37.4433 U8         2 LUT      0.085442
    222 H3         65.3911   64.3076   51.8171 U3         2 LUT     -0.031596
    223 H28        82.4634   65.1084   35.8747 U7         2 LUT      0.084728
    224 H27        84.1422   67.6319   35.8347 U6         2 LUT      0.087291
    225 H26        84.0755   65.0233   34.0833 Q6         2 LUT      0.075325
    226 H24        85.6971   67.2857   31.2490 Q5         2 LUT      0.094482
    227 H23        87.8496   66.8493   32.7771 U3         2 LUT     -0.024869
    228 H22        67.6003   64.1288   52.3878 U2         2 LUT      0.127376
    229 H21        68.0591   64.8700   50.9574 U2         2 LUT      0.127376
    230 H15        74.8420   63.4260   40.6820 T3         2 LUT      0.093200
    231 H14        74.1251   64.9407   43.2614 T2         2 LUT      0.068865
    232 H12        72.1717   64.7342   44.1213 T1         2 LUT      0.095507
    233 H11        70.9852   61.9474   43.6585 U9         2 LUT      0.068930
    234 H10        70.2066   64.2229   45.4314 U8         2 LUT      0.083911
    235 H1         87.1469   64.5268   31.0638 Q1         2 LUT      0.297311
@<TRIPOS>BOND
    1     6     1 1
    2     7     2 1
    3     8     3 1
    4     9     4 1
    5    11     4 1
    6    12     6 1
    7    13     9 1
    8    16     9 1
    9    25     5 1
   10    25    16 1
   11    26    10 1
   12    26    17 1
   13    27    18 1
   14    28    14 1
   15    28    19 1
   16    29    12 1
   17    30    13 1
   18    31    24 1
   19    32     1 1
   20    32    25 1
   21    33    21 1
   22    33    26 1
   23    34    22 1
   24    34    27 1
   25    35    23 1
   26    35    28 1
   27    36    12 1
   28    36    24 1
   29    37    13 1
   30    37    15 1
   31    38    31 1
   32    39    20 1
   33    39    32 1
   34    40     2 1
   35    40    33 1
   36    41     3 1
   37    41    34 1
   38    42     4 1
   39    42    35 1
   40    43    38 1
   41    44     5 1
   42    44    17 1
   43    44    39 1
   44    45    10 1
   45    45    18 1
   46    45    40 1
   47    46    19 1
   48    46    41 1
   49    47    14 1
   50    47    16 1
   51    47    42 1
   52    48    38 1
   53    49    48 1
   54    50    49 1
   55    51    50 1
   56    52    51 1
   57    53    51 1
   58    54    53 1
   59    55    54 1
   60    56    55 1
   61    57    56 1
   62    58    56 1
   63    59    58 1
   64    60    59 1
   65    61    60 1
   66    62    61 1
   67    63    61 1
   68    64    27 1
   69    64    46 1
   70    65     5 1
   71    65    10 1
   72    65    64 1
   73    65    14 1
   74    66    23 1
   75    67    23 1
   76    68    23 1
   77    69    22 1
   78    70    22 1
   79    71    22 1
   80    72    21 1
   81    73    21 1
   82    74    21 1
   83    75    20 1
   84    76    20 1
   85    77    20 1
   86    78    15 1
   87    79    15 1
   88    80    15 1
   89    81     8 1
   90    82     8 1
   91    83     8 1
   92    84     7 1
   93    85     7 1
   94    86     6 1
   95    87     6 1
   96    88     3 1
   97    89     3 1
   98    90     1 1
   99    91     1 1
  100    92    63 1
  101    93    63 1
  102    94    63 1
  103    95    62 1
  104    96    62 1
  105    97    62 1
  106    98    60 1
  107    99    60 1
  108   100    59 1
  109   101    59 1
  110   102    58 1
  111   103    58 1
  112   104    57 1
  113   105    57 1
  114   106    57 1
  115   107    55 1
  116   108    55 1
  117   109    54 1
  118   110    54 1
  119   111    53 1
  120   112    53 1
  121   113    19 1
  122   114    18 1
  123   115    17 1
  124   116     9 1
  125   117     2 1
  126   118    52 1
  127   119    52 1
  128   120    52 1
  129   121    51 1
  130   122    50 1
  131   123    50 1
  132   124    49 1
  133   125    49 1
  134   126    48 1
  135   127    48 1
  136   128    43 1
  137   129    43 1
  138   130    43 1
  139   131    39 1
  140   132    32 1
  141   133    31 1
  142   134    61 1
  143   135    56 1
  144   136    24 1
  145   137    24 1
  146   139   138 1
  147   140   139 1
  148   141   140 1
  149   142   140 1
  150   143   142 1
  151   144   138 1
  152   144   143 1
  153   145   144 1
  154   146   145 1
  155   147   146 1
  156   148   147 1
  157   149   148 1
  158   150   149 1
  159   151   150 1
  160   152   151 1
  161   153   152 1
  162   154   138 1
  163   155   138 1
  164   156   143 1
  165   157   147 1
  166   158   151 1
  167   160   159 1
  168   161   160 1
  169   162   161 1
  170   163   161 1
  171   164   163 1
  172   165   159 1
  173   165   164 1
  174   166   165 1
  175   167   166 1
  176   168   167 1
  177   169   168 1
  178   170   169 1
  179   171   170 1
  180   172   171 1
  181   173   172 1
  182   174   153 1
  183   174   173 1
  184   175   159 1
  185   176   159 1
  186   177   164 1
  187   178   168 1
  188   179   172 1
  189   180   179 1
  190   181   179 1
  191   182   179 1
  192   183   178 1
  193   184   178 1
  194   185   178 1
  195   186   177 1
  196   187   177 1
  197   188   177 1
  198   189   176 1
  199   190   176 1
  200   191   176 1
  201   192   175 1
  202   193   175 1
  203   194   175 1
  204   195   160 1
  205   196   160 1
  206   197   158 1
  207   198   158 1
  208   199   158 1
  209   200   157 1
  210   201   157 1
  211   202   157 1
  212   203   156 1
  213   204   156 1
  214   205   156 1
  215   206   155 1
  216   207   155 1
  217   208   155 1
  218   209   154 1
  219   210   154 1
  220   211   154 1
  221   212   141 1
  222   213   146 1
  223   214   145 1
  224   215   142 1
  225   216   142 1
  226   217   174 1
  227   218   173 1
  228   219   171 1
  229   220   170 1
  230   221   169 1
  231   222   140 1
  232   223   167 1
  233   224   166 1
  234   225   165 1
  235   226   163 1
  236   227   161 1
  237   228   139 1
  238   229   139 1
  239   230   153 1
  240   231   152 1
  241   232   150 1
  242   233   149 1
  243   234   148 1
  244   235   162 1
  245   65    153 1
  246   65    174 1
@<TRIPOS>SUBSTRUCTURE
      1 CLA               1 ****               0 ****  **** 
      2 LUT             138 ****               0 ****  **** 
