@<TRIPOS>MOLECULE
Cpptraj generated mol2 file.
  235   246     2     0     0
SMALL
USER_CHARGES


@<TRIPOS>ATOM
      1 CAA        80.1406   58.4285   33.5611 a2         1 CLA     -0.055900
      2 CAB        80.1063   62.1923   42.4821 c8         1 CLA     -0.148500
      3 CAC        73.3063   57.6316   42.0058 a2         1 CLA     -0.012600
      4 CAD        75.9585   55.5218   34.6753 ck         1 CLA      0.398800
      5 NA         79.1630   58.5140   36.9724 ns         1 CLA     -0.225500
      6 CBA        81.2923   58.3564   32.5958 a2         1 CLA     -0.135000
      7 CBB        81.2650   62.1538   43.1827 c0         1 CLA     -0.395200
      8 CBC        73.4848   56.2134   42.2307 a3         1 CLA     -0.037700
      9 CBD        77.4205   56.2206   34.2927 a1         1 CLA     -0.053900
     10 NB         78.9021   60.0763   39.5341 nm         1 CLA     -0.295700
     11 OBD        75.3928   54.6831   33.9944 o2         1 CLA     -0.494600
     12 CGA        81.7489   56.9122   32.1751 c4         1 CLA      0.827000
     13 CGD        78.4550   55.0902   34.2053 c4         1 CLA      0.655300
     14 ND         76.4314   57.5213   37.5836 nm         1 CLA     -0.291600
     15 CED        79.3656   53.1410   35.3029 a3         1 CLA      0.005400
     16 CHA        77.7874   57.1741   35.4836 cs         1 CLA     -0.123800
     17 CHB        80.7695   60.0144   37.9451 aa         1 CLA     -0.291900
     18 CHC        77.6178   60.4555   41.5920 aa         1 CLA     -0.090400
     19 CHD        74.6434   57.4264   39.1348 aa         1 CLA     -0.052000
     20 CMA        82.6192   57.9423   36.4120 a3         1 CLA     -0.230700
     21 CMB        82.1100   62.0036   39.9881 a3         1 CLA     -0.180800
     22 CMC        75.3521   59.4461   43.6325 a3         1 CLA     -0.134000
     23 CMD        73.4209   55.2683   36.9804 a3         1 CLA     -0.141100
     24 C1         82.4810   54.7296   32.8900 a2         1 CLA      0.023000
     25 C1A        78.9838   57.7666   35.8184 ac         1 CLA     -0.015100
     26 C1B        80.1227   60.5265   39.0864 cr         1 CLA      0.054700
     27 C1C        76.5157   59.6606   41.2756 cn         1 CLA     -0.005600
     28 C1D        75.1704   56.9606   37.9371 ap         1 CLA     -0.047300
     29 O1A        81.6145   56.4898   31.0063 o2         1 CLA     -0.610800
     30 O1D        79.0101   54.6409   33.1656 o2         1 CLA     -0.558200
     31 C2         82.9552   54.3449   34.3003 c8         1 CLA     -0.325100
     32 C2A        80.2877   57.7888   34.9568 a1         1 CLA      0.098600
     33 C2B        80.7171   61.3944   40.1015 cb         1 CLA      0.088500
     34 C2C        75.4175   59.2255   42.1732 cb         1 CLA      0.053700
     35 C2D        74.6770   55.9852   36.9300 cb         1 CLA      0.058900
     36 O2A        82.2400   56.1717   33.1663 o1         1 CLA     -0.437200
     37 O2D        78.7057   54.4813   35.4321 o1         1 CLA     -0.357600
     38 C3         84.0379   53.6125   34.6643 c5         1 CLA      0.031200
     39 C3A        81.2450   58.6202   35.9108 a1         1 CLA      0.166800
     40 C3B        79.8929   61.4294   41.1972 cb         1 CLA      0.035000
     41 C3C        74.5322   58.3768   41.4225 cb         1 CLA     -0.089900
     42 C3D        75.6554   56.0458   35.9573 cb         1 CLA     -0.035900
     43 C4         84.0061   52.1301   34.8761 a3         1 CLA     -0.053300
     44 C4A        80.3586   59.0746   37.0165 ac         1 CLA      0.001800
     45 C4B        78.7155   60.6260   40.8113 cn         1 CLA     -0.020900
     46 C4C        75.1545   58.2139   40.1793 cr         1 CLA     -0.044400
     47 C4D        76.6432   57.0617   36.3793 c6         1 CLA     -0.046000
     48 C5         85.3365   54.2898   34.9364 a2         1 CLA     -0.070400
     49 C6         85.6201   54.6407   36.3923 a2         1 CLA      0.043900
     50 C7         86.9990   55.4099   36.4580 a2         1 CLA     -0.150000
     51 C8         87.3320   56.3169   37.7287 a1         1 CLA      0.064200
     52 C9         86.3769   57.5805   37.6395 a3         1 CLA     -0.259300
     53 C10        88.8040   56.7423   37.9222 a2         1 CLA     -0.071900
     54 C11        89.2589   57.6235   39.1423 a2         1 CLA      0.014500
     55 C12        89.1301   56.8607   40.4554 a2         1 CLA     -0.112100
     56 C13        89.6158   57.6755   41.6555 a1         1 CLA      0.089200
     57 C14        90.2753   56.8613   42.7991 a3         1 CLA     -0.239100
     58 C15        88.5307   58.6261   42.2473 a2         1 CLA     -0.102200
     59 C16        87.5038   58.0507   43.1906 a2         1 CLA      0.023900
     60 C17        86.2437   59.0447   43.3465 a2         1 CLA     -0.105700
     61 C18        85.2283   58.7721   44.6528 a1         1 CLA      0.206800
     62 C19        85.9508   58.8749   45.9976 a3         1 CLA     -0.280100
     63 C20        83.9421   59.7064   44.6687 a3         1 CLA     -0.280100
     64 NC         76.3122   58.9480   40.1126 nx         1 CLA     -0.309200
     65 MG         77.5867   58.8466   38.4861 mg         1 CLA      0.895000
     66 HMD3       72.5358   55.9756   36.9609 dc         1 CLA      0.064300
     67 HMD2       73.3103   54.5524   36.2262 dc         1 CLA      0.064300
     68 HMD1       73.5246   54.6224   37.8712 dc         1 CLA      0.064300
     69 HMC3       74.2898   59.7581   43.8570 dc         1 CLA      0.052100
     70 HMC2       75.5406   58.5103   44.1875 dc         1 CLA      0.052100
     71 HMC1       76.0068   60.2401   43.9902 dc         1 CLA      0.052100
     72 HMB3       82.4224   62.3157   40.9908 dc         1 CLA      0.063600
     73 HMB2       82.8294   61.1796   39.6102 dc         1 CLA      0.063600
     74 HMB1       81.9999   62.7663   39.2175 dc         1 CLA      0.063600
     75 HMA3       83.1060   57.6083   35.5206 dc         1 CLA      0.058300
     76 HMA2       83.1450   58.7470   36.8067 dc         1 CLA      0.058300
     77 HMA1       82.5115   57.1586   37.1399 dc         1 CLA      0.058300
     78 HED3       80.2276   53.1802   34.6206 dc         1 CLA      0.079300
     79 HED2       79.6076   52.8516   36.2800 dc         1 CLA      0.079300
     80 HED1       78.6571   52.4463   34.8656 dc         1 CLA      0.079300
     81 HBC3       74.2741   55.7754   41.6448 dc         1 CLA      0.016300
     82 HBC2       73.7746   56.1408   43.2923 dc         1 CLA      0.016300
     83 HBC1       72.5653   55.6364   42.0670 dc         1 CLA      0.016300
     84 HBB2       81.3823   62.7107   44.1309 da         1 CLA      0.183000
     85 HBB1       82.0741   61.5130   42.8689 da         1 CLA      0.183000
     86 HBA2       80.8530   58.9643   31.8087 dc         1 CLA      0.029400
     87 HBA1       82.1563   58.8462   33.0523 dc         1 CLA      0.029400
     88 HAC2       72.9965   58.1028   42.8703 dc         1 CLA      0.029300
     89 HAC1       72.4630   57.7898   41.3509 dc         1 CLA      0.029300
     90 HAA2       79.2989   57.9012   33.1058 dc         1 CLA      0.028700
     91 HAA1       79.9327   59.4663   33.7812 dc         1 CLA      0.028700
     92 H203       83.4116   59.6510   43.6880 dc         1 CLA      0.065600
     93 H202       83.2510   59.4969   45.5055 dc         1 CLA      0.065600
     94 H201       84.2844   60.7231   44.8641 dc         1 CLA      0.065600
     95 H193       86.5699   59.7831   45.9546 dc         1 CLA      0.065600
     96 H192       85.1148   59.0478   46.6974 dc         1 CLA      0.065600
     97 H191       86.5096   57.9787   46.1363 dc         1 CLA      0.065600
     98 H172       86.6215   60.0208   43.5072 dc         1 CLA      0.027600
     99 H171       85.6349   58.9655   42.4634 dc         1 CLA      0.027600
    100 H162       87.1588   57.2066   42.7448 dc         1 CLA      0.002900
    101 H161       87.9675   57.5840   44.1099 dc         1 CLA      0.002900
    102 H152       88.9867   59.4282   42.8625 dc         1 CLA      0.029100
    103 H151       87.9795   59.1756   41.5115 dc         1 CLA      0.029100
    104 H143       91.2235   56.4546   42.2911 dc         1 CLA      0.063600
    105 H142       90.4727   57.4758   43.6773 dc         1 CLA      0.063600
    106 H141       89.5406   56.1228   43.1711 dc         1 CLA      0.063600
    107 H122       88.1435   56.5385   40.5967 dc         1 CLA      0.032500
    108 H121       89.7874   55.9378   40.3775 dc         1 CLA      0.032500
    109 H112       90.2875   57.9406   38.9014 dc         1 CLA      0.006600
    110 H111       88.6914   58.5047   39.1623 dc         1 CLA      0.006600
    111 H102       89.3522   55.8434   38.0194 dc         1 CLA      0.024100
    112 H101       89.1578   57.2740   37.0204 dc         1 CLA      0.024100
    113 HHD        73.7545   56.9359   39.4254 da         1 CLA      0.174300
    114 HHC        77.6563   60.9168   42.5703 da         1 CLA      0.136800
    115 HHB        81.7302   60.4799   37.6627 da         1 CLA      0.138300
    116 HBD        77.2681   56.7166   33.3664 dc         1 CLA      0.107700
    117 HAB        79.2966   62.7559   42.8736 da         1 CLA      0.155200
    118 H93        86.3287   57.9567   38.6027 dc         1 CLA      0.069500
    119 H92        86.8652   58.3051   37.0659 dc         1 CLA      0.069500
    120 H91        85.3894   57.4185   37.3527 dc         1 CLA      0.069500
    121 H8         87.0641   55.7850   38.6541 dc         1 CLA      0.029300
    122 H72        87.7561   54.6016   36.5540 dc         1 CLA      0.044400
    123 H71        87.3142   56.0266   35.5709 dc         1 CLA      0.044400
    124 H62        84.8692   55.3413   36.7826 dc         1 CLA      0.015600
    125 H61        85.6392   53.6864   36.9437 dc         1 CLA      0.015600
    126 H52        86.2014   53.7581   34.4736 dc         1 CLA      0.033200
    127 H51        85.3064   55.2194   34.5073 dc         1 CLA      0.033200
    128 H43        84.6763   51.8081   35.7570 dc         1 CLA      0.037000
    129 H42        82.9278   51.8248   34.9609 dc         1 CLA      0.037000
    130 H41        84.5061   51.7462   34.0397 dc         1 CLA      0.037000
    131 H3A        81.6348   59.4689   35.2993 dc         1 CLA      0.041100
    132 H2A        80.5462   56.7408   34.8517 dc         1 CLA      0.083100
    133 H2         82.2858   54.7510   35.0792 da         1 CLA      0.180900
    134 H18        84.7001   57.8174   44.4411 dc         1 CLA     -0.003900
    135 H13        90.3739   58.3399   41.2524 dc         1 CLA      0.019700
    136 H12        81.5625   54.1584   32.6856 dc         1 CLA      0.120400
    137 H11        83.3346   54.6422   32.1618 dc         1 CLA      0.120400
    138 C1         70.5402   61.2019   49.6746 Z1         2 LUT      0.509236
    139 C2         69.1568   60.9872   50.3858 Z2         2 LUT     -0.434695
    140 C3         68.2773   62.2495   50.7583 Z3         2 LUT      0.437453
    141 O3         68.5031   62.8151   52.0283 S1         2 LUT     -0.547129
    142 C4         68.5350   63.3303   49.7201 Z4         2 LUT     -0.468603
    143 C5         69.2758   62.9675   48.4545 Z5         2 LUT      0.279246
    144 C6         70.3371   62.1502   48.4417 Z6         2 LUT     -0.305473
    145 C7         70.6139   61.5844   47.1863 Z7         2 LUT      0.069402
    146 C8         71.4628   62.2164   46.3374 Z8         2 LUT     -0.191631
    147 C9         71.9127   61.7790   45.0038 Z9         2 LUT      0.196698
    148 C10        72.8884   62.4763   44.3821 Y1         2 LUT     -0.208611
    149 C11        73.4389   62.3262   43.0385 Y2         2 LUT      0.030784
    150 C12        74.6097   62.9060   42.6833 Y3         2 LUT     -0.220316
    151 C13        75.3616   62.9949   41.4801 Y4         2 LUT      0.215937
    152 C14        76.5208   63.6850   41.5309 Y5         2 LUT     -0.185793
    153 C15        77.4066   63.8672   40.4404 Y6         2 LUT     -0.057835
    154 C16        71.1265   59.8191   49.3443 Y7         2 LUT     -0.405615
    155 C17        71.3877   61.7887   50.8179 Y7         2 LUT     -0.405615
    156 C18        68.6116   63.4820   47.1916 Y9         2 LUT     -0.369639
    157 C19        71.1593   60.7368   44.3721 W1         2 LUT     -0.333362
    158 C20        74.8156   62.3209   40.2722 W2         2 LUT     -0.323439
    159 C21        88.7486   65.5192   34.4849 Z1         2 LUT      0.406104
    160 C22        89.6304   65.0038   33.2882 Z2         2 LUT     -0.404965
    161 C23        89.9392   66.0018   32.2446 Z3         2 LUT      0.391255
    162 O23        90.8307   65.4779   31.1951 S1         2 LUT     -0.528210
    163 C24        88.6893   66.7336   31.8233 W6         2 LUT     -0.258361
    164 C25        87.5387   66.7660   32.4758 Z5         2 LUT      0.133546
    165 C26        87.3709   66.0367   33.8639 W8         2 LUT     -0.147008
    166 C27        86.5165   66.7687   34.9230 Z7         2 LUT      0.023843
    167 C28        85.5492   66.0678   35.6012 Z8         2 LUT     -0.216987
    168 C29        84.9918   66.3349   36.9016 Z9         2 LUT      0.206524
    169 C30        83.6893   65.7650   37.1427 Y1         2 LUT     -0.215556
    170 C31        82.7926   65.8413   38.3041 Y2         2 LUT      0.025142
    171 C32        81.5663   65.2873   38.3796 Y3         2 LUT     -0.212209
    172 C33        80.7170   65.3012   39.5426 Y4         2 LUT      0.240937
    173 C34        79.4917   64.7194   39.5401 Y5         2 LUT     -0.218862
    174 C35        78.6283   64.4790   40.6183 Y6         2 LUT     -0.023547
    175 C36        89.4612   66.6426   35.2646 Y7         2 LUT     -0.393485
    176 C37        88.5341   64.4313   35.4559 Y7         2 LUT     -0.393485
    177 C38        86.4056   67.6371   31.9707 Y9         2 LUT     -0.387526
    178 C39        85.8036   67.2100   37.7909 W1         2 LUT     -0.322618
    179 C40        81.2007   66.0540   40.7574 W2         2 LUT     -0.358472
    180 H403       81.9714   66.8553   40.6815 R7         2 LUT      0.097720
    181 H402       80.4850   66.6836   41.3045 R7         2 LUT      0.097720
    182 H401       81.5540   65.3640   41.4694 R7         2 LUT      0.097720
    183 H393       85.9145   68.2607   37.4956 R4         2 LUT      0.082505
    184 H392       85.4787   67.2006   38.8557 R4         2 LUT      0.082505
    185 H391       86.8368   66.8624   37.6297 R4         2 LUT      0.082505
    186 H383       85.8344   68.2715   32.6781 R1         2 LUT      0.104030
    187 H382       86.7877   68.3319   31.2294 R1         2 LUT      0.104030
    188 H381       85.5592   67.0929   31.4609 R1         2 LUT      0.104030
    189 H373       89.4233   64.1032   36.0331 T4         2 LUT      0.089537
    190 H372       87.8950   64.8514   36.1886 T4         2 LUT      0.089537
    191 H371       88.0628   63.5382   34.9924 T4         2 LUT      0.089537
    192 H363       89.5910   67.5321   34.5587 T4         2 LUT      0.089537
    193 H362       88.8759   67.0151   36.1046 T4         2 LUT      0.089537
    194 H361       90.3986   66.3450   35.6227 T4         2 LUT      0.089537
    195 H222       90.4625   64.3530   33.5402 U2         2 LUT      0.127376
    196 H221       88.7858   64.5032   32.6473 U2         2 LUT      0.127376
    197 H203       74.1236   61.4650   40.3989 R7         2 LUT      0.087068
    198 H202       74.2352   63.0270   39.7101 R7         2 LUT      0.087068
    199 H201       75.6100   61.9031   39.6575 R7         2 LUT      0.087068
    200 H193       70.0847   61.0995   44.3010 R4         2 LUT      0.089716
    201 H192       71.4628   60.5696   43.3271 R4         2 LUT      0.089716
    202 H191       71.1375   59.7072   44.9305 R4         2 LUT      0.089716
    203 H183       68.4814   62.6746   46.4608 R1         2 LUT      0.094572
    204 H182       67.5722   63.8688   47.3082 R1         2 LUT      0.094572
    205 H181       69.1595   64.2577   46.7469 R1         2 LUT      0.094572
    206 H173       72.4416   61.8232   50.5499 T4         2 LUT      0.093752
    207 H172       71.1302   62.8322   51.0040 T4         2 LUT      0.093752
    208 H171       71.1521   61.2405   51.7099 T4         2 LUT      0.093752
    209 H163       72.0859   59.9969   48.7815 T4         2 LUT      0.093752
    210 H162       71.3655   59.2397   50.1830 T4         2 LUT      0.093752
    211 H161       70.4159   59.2459   48.7205 T4         2 LUT      0.093752
    212 HO3        67.9381   62.3769   52.6525 Q1         2 LUT      0.300121
    213 H8         71.9348   63.1521   46.7426 U7         2 LUT      0.080784
    214 H7         70.0611   60.7171   46.8850 U6         2 LUT      0.042190
    215 H42        67.5691   63.7480   49.5873 U5         2 LUT      0.145166
    216 H41        69.0874   64.0929   50.1889 U5         2 LUT      0.145166
    217 H35        78.9537   64.6970   41.5589 T3         2 LUT      0.077919
    218 H34        79.3634   64.2049   38.6341 T2         2 LUT      0.073626
    219 H32        81.2614   64.7030   37.5273 T1         2 LUT      0.092510
    220 H31        83.3727   66.3335   39.0591 U9         2 LUT      0.070048
    221 H30        83.3205   65.1768   36.3533 U8         2 LUT      0.085442
    222 H3         67.1741   61.9202   50.6646 U3         2 LUT     -0.031596
    223 H28        85.1100   65.1960   35.0798 U7         2 LUT      0.084728
    224 H27        86.8813   67.7044   35.3485 U6         2 LUT      0.087291
    225 H26        86.6503   65.1658   33.6600 Q6         2 LUT      0.075325
    226 H24        88.8141   67.1816   30.8975 Q5         2 LUT      0.094482
    227 H23        90.4849   66.7231   32.8189 U3         2 LUT     -0.024869
    228 H22        68.6211   60.5187   49.5009 U2         2 LUT      0.127376
    229 H21        69.1557   60.2315   51.1757 U2         2 LUT      0.127376
    230 H15        77.0577   63.6829   39.3668 T3         2 LUT      0.093200
    231 H14        76.9349   64.0660   42.4498 T2         2 LUT      0.068865
    232 H12        75.1881   63.4161   43.5281 T1         2 LUT      0.095507
    233 H11        72.7759   61.7721   42.3220 U9         2 LUT      0.068930
    234 H10        73.4068   63.2842   44.9095 U8         2 LUT      0.083911
    235 H1         90.4226   64.8514   30.5605 Q1         2 LUT      0.297311
@<TRIPOS>BOND
    1     6     1 1
    2     7     2 1
    3     8     3 1
    4     9     4 1
    5    11     4 1
    6    12     6 1
    7    13     9 1
    8    16     9 1
    9    25     5 1
   10    25    16 1
   11    26    10 1
   12    26    17 1
   13    27    18 1
   14    28    14 1
   15    28    19 1
   16    29    12 1
   17    30    13 1
   18    31    24 1
   19    32     1 1
   20    32    25 1
   21    33    21 1
   22    33    26 1
   23    34    22 1
   24    34    27 1
   25    35    23 1
   26    35    28 1
   27    36    12 1
   28    36    24 1
   29    37    13 1
   30    37    15 1
   31    38    31 1
   32    39    20 1
   33    39    32 1
   34    40     2 1
   35    40    33 1
   36    41     3 1
   37    41    34 1
   38    42     4 1
   39    42    35 1
   40    43    38 1
   41    44     5 1
   42    44    17 1
   43    44    39 1
   44    45    10 1
   45    45    18 1
   46    45    40 1
   47    46    19 1
   48    46    41 1
   49    47    14 1
   50    47    16 1
   51    47    42 1
   52    48    38 1
   53    49    48 1
   54    50    49 1
   55    51    50 1
   56    52    51 1
   57    53    51 1
   58    54    53 1
   59    55    54 1
   60    56    55 1
   61    57    56 1
   62    58    56 1
   63    59    58 1
   64    60    59 1
   65    61    60 1
   66    62    61 1
   67    63    61 1
   68    64    27 1
   69    64    46 1
   70    65     5 1
   71    65    10 1
   72    65    64 1
   73    65    14 1
   74    66    23 1
   75    67    23 1
   76    68    23 1
   77    69    22 1
   78    70    22 1
   79    71    22 1
   80    72    21 1
   81    73    21 1
   82    74    21 1
   83    75    20 1
   84    76    20 1
   85    77    20 1
   86    78    15 1
   87    79    15 1
   88    80    15 1
   89    81     8 1
   90    82     8 1
   91    83     8 1
   92    84     7 1
   93    85     7 1
   94    86     6 1
   95    87     6 1
   96    88     3 1
   97    89     3 1
   98    90     1 1
   99    91     1 1
  100    92    63 1
  101    93    63 1
  102    94    63 1
  103    95    62 1
  104    96    62 1
  105    97    62 1
  106    98    60 1
  107    99    60 1
  108   100    59 1
  109   101    59 1
  110   102    58 1
  111   103    58 1
  112   104    57 1
  113   105    57 1
  114   106    57 1
  115   107    55 1
  116   108    55 1
  117   109    54 1
  118   110    54 1
  119   111    53 1
  120   112    53 1
  121   113    19 1
  122   114    18 1
  123   115    17 1
  124   116     9 1
  125   117     2 1
  126   118    52 1
  127   119    52 1
  128   120    52 1
  129   121    51 1
  130   122    50 1
  131   123    50 1
  132   124    49 1
  133   125    49 1
  134   126    48 1
  135   127    48 1
  136   128    43 1
  137   129    43 1
  138   130    43 1
  139   131    39 1
  140   132    32 1
  141   133    31 1
  142   134    61 1
  143   135    56 1
  144   136    24 1
  145   137    24 1
  146   139   138 1
  147   140   139 1
  148   141   140 1
  149   142   140 1
  150   143   142 1
  151   144   138 1
  152   144   143 1
  153   145   144 1
  154   146   145 1
  155   147   146 1
  156   148   147 1
  157   149   148 1
  158   150   149 1
  159   151   150 1
  160   152   151 1
  161   153   152 1
  162   154   138 1
  163   155   138 1
  164   156   143 1
  165   157   147 1
  166   158   151 1
  167   160   159 1
  168   161   160 1
  169   162   161 1
  170   163   161 1
  171   164   163 1
  172   165   159 1
  173   165   164 1
  174   166   165 1
  175   167   166 1
  176   168   167 1
  177   169   168 1
  178   170   169 1
  179   171   170 1
  180   172   171 1
  181   173   172 1
  182   174   153 1
  183   174   173 1
  184   175   159 1
  185   176   159 1
  186   177   164 1
  187   178   168 1
  188   179   172 1
  189   180   179 1
  190   181   179 1
  191   182   179 1
  192   183   178 1
  193   184   178 1
  194   185   178 1
  195   186   177 1
  196   187   177 1
  197   188   177 1
  198   189   176 1
  199   190   176 1
  200   191   176 1
  201   192   175 1
  202   193   175 1
  203   194   175 1
  204   195   160 1
  205   196   160 1
  206   197   158 1
  207   198   158 1
  208   199   158 1
  209   200   157 1
  210   201   157 1
  211   202   157 1
  212   203   156 1
  213   204   156 1
  214   205   156 1
  215   206   155 1
  216   207   155 1
  217   208   155 1
  218   209   154 1
  219   210   154 1
  220   211   154 1
  221   212   141 1
  222   213   146 1
  223   214   145 1
  224   215   142 1
  225   216   142 1
  226   217   174 1
  227   218   173 1
  228   219   171 1
  229   220   170 1
  230   221   169 1
  231   222   140 1
  232   223   167 1
  233   224   166 1
  234   225   165 1
  235   226   163 1
  236   227   161 1
  237   228   139 1
  238   229   139 1
  239   230   153 1
  240   231   152 1
  241   232   150 1
  242   233   149 1
  243   234   148 1
  244   235   162 1
  245   65    153 1
  246   65    174 1
@<TRIPOS>SUBSTRUCTURE
      1 CLA               1 ****               0 ****  **** 
      2 LUT             138 ****               0 ****  **** 
