@<TRIPOS>MOLECULE
Cpptraj generated mol2 file.
  235   246     2     0     0
SMALL
USER_CHARGES


@<TRIPOS>ATOM
      1 CAA        80.2549   58.2888   34.4600 a2         1 CLA     -0.055900
      2 CAB        80.5165   62.4482   43.1503 c8         1 CLA     -0.148500
      3 CAC        73.4625   58.6159   42.8436 a2         1 CLA     -0.012600
      4 CAD        76.1174   55.7071   35.7485 ck         1 CLA      0.398800
      5 NA         79.3215   58.7167   37.8584 ns         1 CLA     -0.225500
      6 CBA        81.4355   58.1905   33.5672 a2         1 CLA     -0.135000
      7 CBB        80.2976   61.9296   44.3697 c0         1 CLA     -0.395200
      8 CBC        73.7995   57.3507   43.6494 a3         1 CLA     -0.037700
      9 CBD        77.5845   56.1630   35.4537 a1         1 CLA     -0.053900
     10 NB         79.2382   60.4458   40.3135 nm         1 CLA     -0.295700
     11 OBD        75.4512   54.9580   35.0179 o2         1 CLA     -0.494600
     12 CGA        81.7481   56.7909   33.1955 c4         1 CLA      0.827000
     13 CGD        78.4371   54.8865   35.3869 c4         1 CLA      0.655300
     14 ND         76.5145   57.9837   38.4034 nm         1 CLA     -0.291600
     15 CED        78.4671   52.5407   35.8345 a3         1 CLA      0.005400
     16 CHA        77.8880   57.2224   36.5249 cs         1 CLA     -0.123800
     17 CHB        81.0989   60.1555   38.7697 aa         1 CLA     -0.291900
     18 CHC        77.8020   61.0387   42.2023 aa         1 CLA     -0.090400
     19 CHD        74.6177   58.1421   39.9172 aa         1 CLA     -0.052000
     20 CMA        82.6866   57.8120   37.3098 a3         1 CLA     -0.230700
     21 CMB        82.7433   61.9065   40.8063 a3         1 CLA     -0.180800
     22 CMC        75.5525   60.5748   44.2255 a3         1 CLA     -0.134000
     23 CMD        73.3281   56.0739   37.7721 a3         1 CLA     -0.141100
     24 C1         82.7766   54.6807   34.0626 a2         1 CLA      0.023000
     25 C1A        79.1471   57.8468   36.7657 ac         1 CLA     -0.015100
     26 C1B        80.5022   60.7071   39.8966 cr         1 CLA      0.054700
     27 C1C        76.6664   60.3281   41.9298 cn         1 CLA     -0.005600
     28 C1D        75.1615   57.6541   38.7357 ap         1 CLA     -0.047300
     29 O1A        81.6608   56.3560   32.0964 o2         1 CLA     -0.610800
     30 O1D        79.4514   54.7845   34.6878 o2         1 CLA     -0.558200
     31 C2         83.5694   54.2371   35.3014 c8         1 CLA     -0.325100
     32 C2A        80.4247   57.7967   35.9103 a1         1 CLA      0.098600
     33 C2B        81.1734   61.4940   40.8766 cb         1 CLA      0.088500
     34 C2C        75.5768   60.0915   42.8143 cb         1 CLA      0.053700
     35 C2D        74.6380   56.7601   37.7838 cb         1 CLA      0.058900
     36 O2A        82.3653   56.1181   34.2401 o1         1 CLA     -0.437200
     37 O2D        77.9454   53.8781   36.0993 o1         1 CLA     -0.357600
     38 C3         84.8812   53.9533   35.1603 c5         1 CLA      0.031200
     39 C3A        81.4559   58.6041   36.7870 a1         1 CLA      0.166800
     40 C3B        80.2706   61.7509   41.8463 cb         1 CLA      0.035000
     41 C3C        74.6308   59.2645   42.1506 cb         1 CLA     -0.089900
     42 C3D        75.7360   56.5133   36.9403 cb         1 CLA     -0.035900
     43 C4         85.3754   52.7214   34.3860 a3         1 CLA     -0.053300
     44 C4A        80.6004   59.1769   37.8899 ac         1 CLA      0.001800
     45 C4B        78.9856   61.0927   41.4569 cn         1 CLA     -0.020900
     46 C4C        75.2345   58.9895   40.8909 cr         1 CLA     -0.044400
     47 C4D        76.7959   57.3306   37.3204 c6         1 CLA     -0.046000
     48 C5         85.8310   55.0609   35.5739 a2         1 CLA     -0.070400
     49 C6         86.0686   55.1387   37.0568 a2         1 CLA      0.043900
     50 C7         87.1741   56.1557   37.3179 a2         1 CLA     -0.150000
     51 C8         87.8158   56.1545   38.7233 a1         1 CLA      0.064200
     52 C9         88.3541   54.7441   39.2312 a3         1 CLA     -0.259300
     53 C10        86.9292   56.9544   39.8145 a2         1 CLA     -0.071900
     54 C11        87.8074   57.3617   41.0140 a2         1 CLA      0.014500
     55 C12        87.0545   58.1463   42.1372 a2         1 CLA     -0.112100
     56 C13        87.9665   58.5396   43.3447 a1         1 CLA      0.089200
     57 C14        88.6253   57.3213   44.1024 a3         1 CLA     -0.239100
     58 C15        87.1507   59.4423   44.3408 a2         1 CLA     -0.102200
     59 C16        88.0606   60.1161   45.3819 a2         1 CLA      0.023900
     60 C17        87.4747   61.3325   46.0776 a2         1 CLA     -0.105700
     61 C18        86.1749   61.0326   46.8795 a1         1 CLA      0.206800
     62 C19        86.3617   59.9707   47.9408 a3         1 CLA     -0.280100
     63 C20        85.5543   62.2918   47.4738 a3         1 CLA     -0.280100
     64 NC         76.4550   59.6507   40.7480 nx         1 CLA     -0.309200
     65 MG         77.8293   59.3083   39.2027 mg         1 CLA      0.895000
     66 HMD3       73.1533   55.4057   36.9241 dc         1 CLA      0.064300
     67 HMD2       73.2324   55.6115   38.7230 dc         1 CLA      0.064300
     68 HMD1       72.5257   56.8302   37.7371 dc         1 CLA      0.064300
     69 HMC3       76.3469   60.0359   44.7383 dc         1 CLA      0.052100
     70 HMC2       75.8843   61.5827   44.2332 dc         1 CLA      0.052100
     71 HMC1       74.5321   60.4197   44.6745 dc         1 CLA      0.052100
     72 HMB3       82.7680   62.8546   41.3357 dc         1 CLA      0.063600
     73 HMB2       83.3476   61.0688   41.2190 dc         1 CLA      0.063600
     74 HMB1       82.8532   62.0786   39.7560 dc         1 CLA      0.063600
     75 HMA3       83.4023   57.6248   36.5032 dc         1 CLA      0.058300
     76 HMA2       83.2029   58.4000   38.0077 dc         1 CLA      0.058300
     77 HMA1       82.3408   56.8599   37.6654 dc         1 CLA      0.058300
     78 HED3       77.9608   51.8553   36.4651 dc         1 CLA      0.079300
     79 HED2       78.4009   52.2457   34.7699 dc         1 CLA      0.079300
     80 HED1       79.5092   52.4602   36.1420 dc         1 CLA      0.079300
     81 HBC3       74.0403   56.4844   43.0497 dc         1 CLA      0.016300
     82 HBC2       74.6816   57.5269   44.3399 dc         1 CLA      0.016300
     83 HBC1       72.9145   57.0816   44.2694 dc         1 CLA      0.016300
     84 HBB2       80.4542   62.5814   45.2744 da         1 CLA      0.183000
     85 HBB1       79.9350   60.9685   44.5425 da         1 CLA      0.183000
     86 HBA2       81.3007   58.7985   32.6666 dc         1 CLA      0.029400
     87 HBA1       82.2987   58.5232   34.0393 dc         1 CLA      0.029400
     88 HAC2       73.0741   59.2515   43.6497 dc         1 CLA      0.029300
     89 HAC1       72.5975   58.5322   42.1239 dc         1 CLA      0.029300
     90 HAA2       79.5145   57.6316   33.9423 dc         1 CLA      0.028700
     91 HAA1       79.7810   59.2590   34.4703 dc         1 CLA      0.028700
     92 H203       85.5880   63.1542   46.7366 dc         1 CLA      0.065600
     93 H202       84.5178   62.0468   47.7091 dc         1 CLA      0.065600
     94 H201       85.9911   62.6334   48.3999 dc         1 CLA      0.065600
     95 H193       85.4488   59.8723   48.4945 dc         1 CLA      0.065600
     96 H192       86.4891   58.9452   47.4972 dc         1 CLA      0.065600
     97 H191       87.1239   60.2387   48.6339 dc         1 CLA      0.065600
     98 H172       88.2667   61.7592   46.7004 dc         1 CLA      0.027600
     99 H171       87.2545   62.1726   45.3800 dc         1 CLA      0.027600
    100 H162       88.4750   59.3500   46.0761 dc         1 CLA      0.002900
    101 H161       88.9114   60.4823   44.7650 dc         1 CLA      0.002900
    102 H152       86.6355   60.2205   43.7432 dc         1 CLA      0.029100
    103 H151       86.3018   58.8172   44.7570 dc         1 CLA      0.029100
    104 H143       88.0089   56.6617   44.7844 dc         1 CLA      0.063600
    105 H142       89.1674   56.7211   43.4028 dc         1 CLA      0.063600
    106 H141       89.3929   57.6553   44.7583 dc         1 CLA      0.063600
    107 H122       86.5109   58.9513   41.6107 dc         1 CLA      0.032500
    108 H121       86.3244   57.3835   42.5573 dc         1 CLA      0.032500
    109 H112       88.1563   56.4468   41.4330 dc         1 CLA      0.006600
    110 H111       88.6881   57.8763   40.7368 dc         1 CLA      0.006600
    111 H102       86.4569   57.8843   39.4651 dc         1 CLA      0.024100
    112 H101       86.2413   56.3219   40.3233 dc         1 CLA      0.024100
    113 HHD        73.6721   57.8009   40.2751 da         1 CLA      0.174300
    114 HHC        77.6797   61.5023   43.2041 da         1 CLA      0.136800
    115 HHB        82.1404   60.3185   38.5969 da         1 CLA      0.138300
    116 HBD        77.6373   56.5341   34.4376 dc         1 CLA      0.107700
    117 HAB        80.8416   63.4859   43.1328 da         1 CLA      0.155200
    118 H93        88.5529   54.0182   38.4483 dc         1 CLA      0.069500
    119 H92        89.3300   54.8595   39.7693 dc         1 CLA      0.069500
    120 H91        87.6379   54.1928   39.8572 dc         1 CLA      0.069500
    121 H8         88.7007   56.7818   38.5808 dc         1 CLA      0.029300
    122 H72        87.9686   55.9657   36.7088 dc         1 CLA      0.044400
    123 H71        86.7881   57.1431   37.1081 dc         1 CLA      0.044400
    124 H62        85.2300   55.3780   37.6406 dc         1 CLA      0.015600
    125 H61        86.5205   54.1767   37.0966 dc         1 CLA      0.015600
    126 H52        86.7351   54.8357   35.0824 dc         1 CLA      0.033200
    127 H51        85.3406   56.0118   35.2847 dc         1 CLA      0.033200
    128 H43        84.6648   52.0253   34.0996 dc         1 CLA      0.037000
    129 H42        86.0169   52.9947   33.5447 dc         1 CLA      0.037000
    130 H41        86.0488   52.3093   35.1141 dc         1 CLA      0.037000
    131 H3A        81.7274   59.4915   36.2318 dc         1 CLA      0.041100
    132 H2A        80.6175   56.7289   35.9727 dc         1 CLA      0.083100
    133 H2         83.0261   53.8467   36.1650 da         1 CLA      0.180900
    134 H18        85.4006   60.6825   46.1637 dc         1 CLA     -0.003900
    135 H13        88.6951   59.2001   42.9162 dc         1 CLA      0.019700
    136 H12        82.0029   53.9479   33.8518 dc         1 CLA      0.120400
    137 H11        83.3942   54.5815   33.2151 dc         1 CLA      0.120400
    138 C1         70.6656   62.2871   50.1649 Z1         2 LUT      0.509236
    139 C2         69.5420   62.2342   51.2262 Z2         2 LUT     -0.434695
    140 C3         68.5447   63.3781   51.2632 Z3         2 LUT      0.437453
    141 O3         68.5347   64.0816   52.5072 S1         2 LUT     -0.547129
    142 C4         68.6609   64.3586   50.0699 Z4         2 LUT     -0.468603
    143 C5         69.1118   63.8135   48.7837 Z5         2 LUT      0.279246
    144 C6         70.0981   62.8568   48.7468 Z6         2 LUT     -0.305473
    145 C7         70.7268   62.2933   47.5304 Z7         2 LUT      0.069402
    146 C8         71.5044   63.0944   46.7451 Z8         2 LUT     -0.191631
    147 C9         72.0437   62.7904   45.3839 Z9         2 LUT      0.196698
    148 C10        72.9325   63.6548   44.7607 Y1         2 LUT     -0.208611
    149 C11        73.6748   63.5194   43.5576 Y2         2 LUT      0.030784
    150 C12        74.7431   64.2615   43.2770 Y3         2 LUT     -0.220316
    151 C13        75.7187   64.1801   42.2319 Y4         2 LUT      0.215937
    152 C14        76.9224   64.8967   42.3679 Y5         2 LUT     -0.185793
    153 C15        77.9641   64.7802   41.4798 Y6         2 LUT     -0.057835
    154 C16        71.5976   61.1769   50.1035 Y7         2 LUT     -0.405615
    155 C17        71.6221   63.4212   50.6462 Y7         2 LUT     -0.405615
    156 C18        68.5946   64.6036   47.5761 Y9         2 LUT     -0.369639
    157 C19        71.7003   61.3979   44.8342 W1         2 LUT     -0.333362
    158 C20        75.1802   63.6920   40.8452 W2         2 LUT     -0.323439
    159 C21        89.2386   65.2320   34.9336 Z1         2 LUT      0.406104
    160 C22        89.8294   64.5688   33.6006 Z2         2 LUT     -0.404965
    161 C23        89.8498   65.4066   32.4240 Z3         2 LUT      0.391255
    162 O23        90.4756   64.6879   31.3651 S1         2 LUT     -0.528210
    163 C24        88.5706   66.2376   32.1759 W6         2 LUT     -0.258361
    164 C25        87.7397   66.5352   33.1123 Z5         2 LUT      0.133546
    165 C26        87.8249   65.8656   34.5237 W8         2 LUT     -0.147008
    166 C27        87.1677   66.5790   35.6639 Z7         2 LUT      0.023843
    167 C28        85.9492   66.3394   36.2516 Z8         2 LUT     -0.216987
    168 C29        85.3997   66.9364   37.4876 Z9         2 LUT      0.206524
    169 C30        84.2298   66.3719   37.8814 Y1         2 LUT     -0.215556
    170 C31        83.3561   66.6573   39.0513 Y2         2 LUT      0.025142
    171 C32        82.1901   65.9791   39.3616 Y3         2 LUT     -0.212209
    172 C33        81.3841   66.1919   40.5478 Y4         2 LUT      0.240937
    173 C34        80.2911   65.3642   40.7885 Y5         2 LUT     -0.218862
    174 C35        79.1579   65.4804   41.6411 Y6         2 LUT     -0.023547
    175 C36        90.2965   66.1160   35.4668 Y7         2 LUT     -0.393485
    176 C37        89.0541   64.0171   35.8796 Y7         2 LUT     -0.393485
    177 C38        86.6412   67.5555   32.8280 Y9         2 LUT     -0.387526
    178 C39        86.2501   67.8896   38.2962 W1         2 LUT     -0.322618
    179 C40        81.8184   67.2201   41.6190 W2         2 LUT     -0.358472
    180 H403       81.0644   67.5247   42.3140 R7         2 LUT      0.097720
    181 H402       82.6516   66.8625   42.2050 R7         2 LUT      0.097720
    182 H401       82.0760   68.1180   41.0776 R7         2 LUT      0.097720
    183 H393       86.8651   68.6105   37.8030 R4         2 LUT      0.082505
    184 H392       85.6799   68.5904   38.8858 R4         2 LUT      0.082505
    185 H391       86.9008   67.3680   38.9774 R4         2 LUT      0.082505
    186 H383       86.2169   67.9747   33.7462 R1         2 LUT      0.104030
    187 H382       87.0786   68.3827   32.2857 R1         2 LUT      0.104030
    188 H381       85.7784   67.1755   32.2451 R1         2 LUT      0.104030
    189 H373       88.3870   64.3006   36.7643 T4         2 LUT      0.089537
    190 H372       88.6592   63.0960   35.5279 T4         2 LUT      0.089537
    191 H371       90.0544   63.8728   36.3642 T4         2 LUT      0.089537
    192 H363       90.1976   66.2199   36.5605 T4         2 LUT      0.089537
    193 H362       91.2770   65.7643   35.3053 T4         2 LUT      0.089537
    194 H361       90.1684   67.1650   35.0699 T4         2 LUT      0.089537
    195 H222       90.8399   64.3035   33.8706 U2         2 LUT      0.127376
    196 H221       89.2816   63.6554   33.4747 U2         2 LUT      0.127376
    197 H203       75.6871   64.3086   40.0764 R7         2 LUT      0.087068
    198 H202       75.5278   62.6516   40.6830 R7         2 LUT      0.087068
    199 H201       74.1366   63.8812   40.7876 R7         2 LUT      0.087068
    200 H193       72.1649   61.2244   43.9761 R4         2 LUT      0.089716
    201 H192       71.9252   60.5886   45.5271 R4         2 LUT      0.089716
    202 H191       70.7031   61.2669   44.6345 R4         2 LUT      0.089716
    203 H183       69.1523   65.5201   47.5390 R1         2 LUT      0.094572
    204 H182       68.6877   64.0809   46.5943 R1         2 LUT      0.094572
    205 H181       67.5837   64.9541   47.6334 R1         2 LUT      0.094572
    206 H173       72.2394   63.1473   51.4874 T4         2 LUT      0.093752
    207 H172       72.2965   63.7589   49.8486 T4         2 LUT      0.093752
    208 H171       71.1063   64.3705   50.9289 T4         2 LUT      0.093752
    209 H163       72.3324   61.3671   49.2879 T4         2 LUT      0.093752
    210 H162       72.2404   60.9619   51.0417 T4         2 LUT      0.093752
    211 H161       71.0932   60.2189   49.9389 T4         2 LUT      0.093752
    212 HO3        68.0329   63.5939   53.1420 Q1         2 LUT      0.300121
    213 H8         71.6540   64.1220   47.1124 U7         2 LUT      0.080784
    214 H7         70.7616   61.2271   47.4327 U6         2 LUT      0.042190
    215 H42        67.7917   64.9699   49.9150 U5         2 LUT      0.145166
    216 H41        69.3903   65.2063   50.3355 U5         2 LUT      0.145166
    217 H35        79.1922   66.0441   42.5840 T3         2 LUT      0.077919
    218 H34        79.9923   64.5757   39.9681 T2         2 LUT      0.073626
    219 H32        81.9203   65.1389   38.7203 T1         2 LUT      0.092510
    220 H31        83.6358   67.4976   39.6946 U9         2 LUT      0.070048
    221 H30        83.8147   65.5437   37.2757 U8         2 LUT      0.085442
    222 H3         67.5473   62.7938   51.1971 U3         2 LUT     -0.031596
    223 H28        85.4240   65.5052   35.8050 U7         2 LUT      0.084728
    224 H27        87.7856   67.4328   36.0861 U6         2 LUT      0.087291
    225 H26        87.2359   65.0059   34.2580 Q6         2 LUT      0.075325
    226 H24        88.4897   66.7698   31.2113 Q5         2 LUT      0.094482
    227 H23        90.4486   66.2838   32.6832 U3         2 LUT     -0.024869
    228 H22        68.9286   61.3764   51.1726 U2         2 LUT      0.127376
    229 H21        70.0298   62.2714   52.1722 U2         2 LUT      0.127376
    230 H15        77.8982   64.0465   40.6475 T3         2 LUT      0.093200
    231 H14        77.1818   65.4275   43.2627 T2         2 LUT      0.068865
    232 H12        74.9063   65.0088   44.0448 T1         2 LUT      0.095507
    233 H11        73.4345   62.7045   42.8028 U9         2 LUT      0.068930
    234 H10        73.1055   64.6629   45.2246 U8         2 LUT      0.083911
    235 H1         90.1766   64.9814   30.4923 Q1         2 LUT      0.297311
@<TRIPOS>BOND
    1     6     1 1
    2     7     2 1
    3     8     3 1
    4     9     4 1
    5    11     4 1
    6    12     6 1
    7    13     9 1
    8    16     9 1
    9    25     5 1
   10    25    16 1
   11    26    10 1
   12    26    17 1
   13    27    18 1
   14    28    14 1
   15    28    19 1
   16    29    12 1
   17    30    13 1
   18    31    24 1
   19    32     1 1
   20    32    25 1
   21    33    21 1
   22    33    26 1
   23    34    22 1
   24    34    27 1
   25    35    23 1
   26    35    28 1
   27    36    12 1
   28    36    24 1
   29    37    13 1
   30    37    15 1
   31    38    31 1
   32    39    20 1
   33    39    32 1
   34    40     2 1
   35    40    33 1
   36    41     3 1
   37    41    34 1
   38    42     4 1
   39    42    35 1
   40    43    38 1
   41    44     5 1
   42    44    17 1
   43    44    39 1
   44    45    10 1
   45    45    18 1
   46    45    40 1
   47    46    19 1
   48    46    41 1
   49    47    14 1
   50    47    16 1
   51    47    42 1
   52    48    38 1
   53    49    48 1
   54    50    49 1
   55    51    50 1
   56    52    51 1
   57    53    51 1
   58    54    53 1
   59    55    54 1
   60    56    55 1
   61    57    56 1
   62    58    56 1
   63    59    58 1
   64    60    59 1
   65    61    60 1
   66    62    61 1
   67    63    61 1
   68    64    27 1
   69    64    46 1
   70    65     5 1
   71    65    10 1
   72    65    64 1
   73    65    14 1
   74    66    23 1
   75    67    23 1
   76    68    23 1
   77    69    22 1
   78    70    22 1
   79    71    22 1
   80    72    21 1
   81    73    21 1
   82    74    21 1
   83    75    20 1
   84    76    20 1
   85    77    20 1
   86    78    15 1
   87    79    15 1
   88    80    15 1
   89    81     8 1
   90    82     8 1
   91    83     8 1
   92    84     7 1
   93    85     7 1
   94    86     6 1
   95    87     6 1
   96    88     3 1
   97    89     3 1
   98    90     1 1
   99    91     1 1
  100    92    63 1
  101    93    63 1
  102    94    63 1
  103    95    62 1
  104    96    62 1
  105    97    62 1
  106    98    60 1
  107    99    60 1
  108   100    59 1
  109   101    59 1
  110   102    58 1
  111   103    58 1
  112   104    57 1
  113   105    57 1
  114   106    57 1
  115   107    55 1
  116   108    55 1
  117   109    54 1
  118   110    54 1
  119   111    53 1
  120   112    53 1
  121   113    19 1
  122   114    18 1
  123   115    17 1
  124   116     9 1
  125   117     2 1
  126   118    52 1
  127   119    52 1
  128   120    52 1
  129   121    51 1
  130   122    50 1
  131   123    50 1
  132   124    49 1
  133   125    49 1
  134   126    48 1
  135   127    48 1
  136   128    43 1
  137   129    43 1
  138   130    43 1
  139   131    39 1
  140   132    32 1
  141   133    31 1
  142   134    61 1
  143   135    56 1
  144   136    24 1
  145   137    24 1
  146   139   138 1
  147   140   139 1
  148   141   140 1
  149   142   140 1
  150   143   142 1
  151   144   138 1
  152   144   143 1
  153   145   144 1
  154   146   145 1
  155   147   146 1
  156   148   147 1
  157   149   148 1
  158   150   149 1
  159   151   150 1
  160   152   151 1
  161   153   152 1
  162   154   138 1
  163   155   138 1
  164   156   143 1
  165   157   147 1
  166   158   151 1
  167   160   159 1
  168   161   160 1
  169   162   161 1
  170   163   161 1
  171   164   163 1
  172   165   159 1
  173   165   164 1
  174   166   165 1
  175   167   166 1
  176   168   167 1
  177   169   168 1
  178   170   169 1
  179   171   170 1
  180   172   171 1
  181   173   172 1
  182   174   153 1
  183   174   173 1
  184   175   159 1
  185   176   159 1
  186   177   164 1
  187   178   168 1
  188   179   172 1
  189   180   179 1
  190   181   179 1
  191   182   179 1
  192   183   178 1
  193   184   178 1
  194   185   178 1
  195   186   177 1
  196   187   177 1
  197   188   177 1
  198   189   176 1
  199   190   176 1
  200   191   176 1
  201   192   175 1
  202   193   175 1
  203   194   175 1
  204   195   160 1
  205   196   160 1
  206   197   158 1
  207   198   158 1
  208   199   158 1
  209   200   157 1
  210   201   157 1
  211   202   157 1
  212   203   156 1
  213   204   156 1
  214   205   156 1
  215   206   155 1
  216   207   155 1
  217   208   155 1
  218   209   154 1
  219   210   154 1
  220   211   154 1
  221   212   141 1
  222   213   146 1
  223   214   145 1
  224   215   142 1
  225   216   142 1
  226   217   174 1
  227   218   173 1
  228   219   171 1
  229   220   170 1
  230   221   169 1
  231   222   140 1
  232   223   167 1
  233   224   166 1
  234   225   165 1
  235   226   163 1
  236   227   161 1
  237   228   139 1
  238   229   139 1
  239   230   153 1
  240   231   152 1
  241   232   150 1
  242   233   149 1
  243   234   148 1
  244   235   162 1
  245   65    153 1
  246   65    174 1
@<TRIPOS>SUBSTRUCTURE
      1 CLA               1 ****               0 ****  **** 
      2 LUT             138 ****               0 ****  **** 
