@<TRIPOS>MOLECULE
Cpptraj generated mol2 file.
  235   246     2     0     0
SMALL
USER_CHARGES


@<TRIPOS>ATOM
      1 CAA        79.7289   59.1134   34.2796 a2         1 CLA     -0.055900
      2 CAB        79.1880   62.7238   43.4156 c8         1 CLA     -0.148500
      3 CAC        72.3242   58.5114   42.6463 a2         1 CLA     -0.012600
      4 CAD        75.3614   56.6383   35.1629 ck         1 CLA      0.398800
      5 NA         78.3856   59.4107   37.7021 ns         1 CLA     -0.225500
      6 CBA        81.1173   59.0772   33.5733 a2         1 CLA     -0.135000
      7 CBB        80.3048   62.6289   44.2252 c0         1 CLA     -0.395200
      8 CBC        72.5659   57.0434   42.7043 a3         1 CLA     -0.037700
      9 CBD        76.7977   57.2331   34.8914 a1         1 CLA     -0.053900
     10 NB         78.0894   60.9345   40.2052 nm         1 CLA     -0.295700
     11 OBD        74.7977   55.8708   34.3367 o2         1 CLA     -0.494600
     12 CGA        81.5975   57.6589   33.1346 c4         1 CLA      0.827000
     13 CGD        77.7491   56.0960   34.4663 c4         1 CLA      0.655300
     14 ND         75.5774   58.5383   38.1809 nm         1 CLA     -0.291600
     15 CED        78.6544   53.9904   35.3912 a3         1 CLA      0.005400
     16 CHA        77.1284   58.0472   36.1632 cs         1 CLA     -0.123800
     17 CHB        80.1522   60.8504   38.7692 aa         1 CLA     -0.291900
     18 CHC        76.7757   61.1176   42.2420 aa         1 CLA     -0.090400
     19 CHD        73.5659   58.4550   39.6527 aa         1 CLA     -0.052000
     20 CMA        81.8818   58.7281   37.2672 a3         1 CLA     -0.230700
     21 CMB        81.3953   62.4849   40.8808 a3         1 CLA     -0.180800
     22 CMC        74.3707   60.4662   44.3306 a3         1 CLA     -0.134000
     23 CMD        72.4529   56.5539   37.1350 a3         1 CLA     -0.141100
     24 C1         82.3443   55.6583   33.9295 a2         1 CLA      0.023000
     25 C1A        78.3185   58.7098   36.5460 ac         1 CLA     -0.015100
     26 C1B        79.4147   61.1964   39.9296 cr         1 CLA      0.054700
     27 C1C        75.5986   60.4312   41.9553 cn         1 CLA     -0.005600
     28 C1D        74.2161   58.0987   38.4610 ap         1 CLA     -0.047300
     29 O1A        81.3454   57.0794   32.0650 o2         1 CLA     -0.610800
     30 O1D        78.5921   56.0485   33.6101 o2         1 CLA     -0.558200
     31 C2         83.3073   54.9329   34.9578 c8         1 CLA     -0.325100
     32 C2A        79.6390   58.6953   35.8143 a1         1 CLA      0.098600
     33 C2B        80.0054   61.9199   41.0456 cb         1 CLA      0.088500
     34 C2C        74.4888   60.0567   42.8796 cb         1 CLA      0.053700
     35 C2D        73.7685   57.2686   37.2997 cb         1 CLA      0.058900
     36 O2A        82.3401   57.0664   34.1309 o1         1 CLA     -0.437200
     37 O2D        77.6958   55.0801   35.3423 o1         1 CLA     -0.357600
     38 C3         84.0199   53.8270   34.7860 c5         1 CLA      0.031200
     39 C3A        80.6605   59.4786   36.7160 a1         1 CLA      0.166800
     40 C3B        79.0617   62.0184   42.0998 cb         1 CLA      0.035000
     41 C3C        73.5828   59.2852   42.1201 cb         1 CLA     -0.089900
     42 C3D        74.9570   57.1666   36.4724 cb         1 CLA     -0.035900
     43 C4         83.6136   52.4193   35.1119 a3         1 CLA     -0.053300
     44 C4A        79.6892   59.9041   37.8478 ac         1 CLA      0.001800
     45 C4B        77.9055   61.3900   41.5121 cn         1 CLA     -0.020900
     46 C4C        74.1650   59.1316   40.7770 cr         1 CLA     -0.044400
     47 C4D        75.9711   58.0472   36.9939 c6         1 CLA     -0.046000
     48 C5         85.4364   54.0359   34.1282 a2         1 CLA     -0.070400
     49 C6         86.2701   55.1761   34.6823 a2         1 CLA      0.043900
     50 C7         86.6915   55.0684   36.1794 a2         1 CLA     -0.150000
     51 C8         87.2907   56.3910   36.7856 a1         1 CLA      0.064200
     52 C9         88.7372   56.6213   36.3066 a3         1 CLA     -0.259300
     53 C10        87.1501   56.2501   38.4392 a2         1 CLA     -0.071900
     54 C11        87.3138   57.5614   39.1784 a2         1 CLA      0.014500
     55 C12        87.1478   57.3857   40.6727 a2         1 CLA     -0.112100
     56 C13        86.8247   58.6697   41.5160 a1         1 CLA      0.089200
     57 C14        87.9487   59.6743   41.5979 a3         1 CLA     -0.239100
     58 C15        86.2318   58.2713   42.9103 a2         1 CLA     -0.102200
     59 C16        85.7586   59.3841   43.9166 a2         1 CLA      0.023900
     60 C17        84.8831   58.8072   45.0577 a2         1 CLA     -0.105700
     61 C18        84.5082   59.8622   46.1683 a1         1 CLA      0.206800
     62 C19        83.3467   60.7119   45.7694 a3         1 CLA     -0.280100
     63 C20        84.3102   59.1768   47.5680 a3         1 CLA     -0.280100
     64 NC         75.3773   59.8368   40.6770 nx         1 CLA     -0.309200
     65 MG         76.8105   59.8917   39.1363 mg         1 CLA      0.895000
     66 HMD3       72.2416   56.1299   38.0643 dc         1 CLA      0.064300
     67 HMD2       71.7524   57.3191   36.7508 dc         1 CLA      0.064300
     68 HMD1       72.7061   55.8469   36.3449 dc         1 CLA      0.064300
     69 HMC3       73.7555   61.3742   44.2566 dc         1 CLA      0.052100
     70 HMC2       73.8696   59.7700   44.9452 dc         1 CLA      0.052100
     71 HMC1       75.2747   60.7241   44.8132 dc         1 CLA      0.052100
     72 HMB3       81.5249   62.7953   39.8956 dc         1 CLA      0.063600
     73 HMB2       81.5057   63.3578   41.5755 dc         1 CLA      0.063600
     74 HMB1       82.0814   61.7243   41.0694 dc         1 CLA      0.063600
     75 HMA3       82.6587   59.4672   37.6046 dc         1 CLA      0.058300
     76 HMA2       81.5104   58.1849   38.1438 dc         1 CLA      0.058300
     77 HMA1       82.3046   57.9681   36.6228 dc         1 CLA      0.058300
     78 HED3       78.5197   53.3049   34.5477 dc         1 CLA      0.079300
     79 HED2       79.6604   54.3667   35.6281 dc         1 CLA      0.079300
     80 HED1       78.4002   53.4248   36.2184 dc         1 CLA      0.079300
     81 HBC3       72.6008   56.4824   41.7048 dc         1 CLA      0.016300
     82 HBC2       73.4561   56.8699   43.2306 dc         1 CLA      0.016300
     83 HBC1       71.6720   56.6009   43.2079 dc         1 CLA      0.016300
     84 HBB2       80.3228   63.0563   45.2248 da         1 CLA      0.183000
     85 HBB1       81.0800   61.9307   43.9121 da         1 CLA      0.183000
     86 HBA2       81.1928   59.4907   32.5501 dc         1 CLA      0.029400
     87 HBA1       81.8108   59.6728   34.1986 dc         1 CLA      0.029400
     88 HAC2       72.1527   58.8483   43.6651 dc         1 CLA      0.029300
     89 HAC1       71.4867   58.6479   41.9708 dc         1 CLA      0.029300
     90 HAA2       79.0301   58.5886   33.6453 dc         1 CLA      0.028700
     91 HAA1       79.4154   60.1686   34.1957 dc         1 CLA      0.028700
     92 H203       85.2070   58.6132   47.7293 dc         1 CLA      0.065600
     93 H202       84.3424   60.0191   48.2744 dc         1 CLA      0.065600
     94 H201       83.3774   58.6030   47.6322 dc         1 CLA      0.065600
     95 H193       83.4075   60.8798   44.6881 dc         1 CLA      0.065600
     96 H192       82.5235   60.0961   45.9089 dc         1 CLA      0.065600
     97 H191       83.3775   61.6134   46.4168 dc         1 CLA      0.065600
     98 H172       84.0051   58.4296   44.6091 dc         1 CLA      0.027600
     99 H171       85.3481   57.9902   45.5326 dc         1 CLA      0.027600
    100 H162       86.5820   59.8777   44.2681 dc         1 CLA      0.002900
    101 H161       85.1301   60.0500   43.3047 dc         1 CLA      0.002900
    102 H152       85.3930   57.5941   42.7085 dc         1 CLA      0.029100
    103 H151       86.9572   57.5188   43.3132 dc         1 CLA      0.029100
    104 H143       87.6887   60.6099   42.0812 dc         1 CLA      0.063600
    105 H142       88.6858   59.1226   42.1562 dc         1 CLA      0.063600
    106 H141       88.3046   60.0962   40.6862 dc         1 CLA      0.063600
    107 H122       86.3128   56.7180   40.9164 dc         1 CLA      0.032500
    108 H121       88.0416   56.9330   41.0790 dc         1 CLA      0.032500
    109 H112       88.3308   57.8991   38.9611 dc         1 CLA      0.006600
    110 H111       86.5779   58.2607   38.8721 dc         1 CLA      0.006600
    111 H102       86.1638   55.8998   38.7147 dc         1 CLA      0.024100
    112 H101       87.8631   55.5299   38.8411 dc         1 CLA      0.024100
    113 HHD        72.6200   57.9897   39.8694 da         1 CLA      0.174300
    114 HHC        76.8714   61.4275   43.2487 da         1 CLA      0.136800
    115 HHB        81.1500   61.2910   38.6031 da         1 CLA      0.138300
    116 HBD        76.7297   57.8629   33.9533 dc         1 CLA      0.107700
    117 HAB        78.3418   63.3074   43.7317 da         1 CLA      0.155200
    118 H93        89.2131   57.5194   36.7421 dc         1 CLA      0.069500
    119 H92        89.3959   55.8964   36.8037 dc         1 CLA      0.069500
    120 H91        88.7180   56.5995   35.1880 dc         1 CLA      0.069500
    121 H8         86.8134   57.3103   36.5145 dc         1 CLA      0.029300
    122 H72        85.7870   54.8040   36.7286 dc         1 CLA      0.044400
    123 H71        87.4407   54.3150   36.1981 dc         1 CLA      0.044400
    124 H62        87.1335   55.2811   34.0388 dc         1 CLA      0.015600
    125 H61        85.8554   56.1920   34.6153 dc         1 CLA      0.015600
    126 H52        86.1252   53.1994   34.2497 dc         1 CLA      0.033200
    127 H51        85.2285   54.1276   33.0671 dc         1 CLA      0.033200
    128 H43        84.4802   51.9134   35.5052 dc         1 CLA      0.037000
    129 H42        82.7078   52.4096   35.8299 dc         1 CLA      0.037000
    130 H41        83.3718   51.8003   34.2407 dc         1 CLA      0.037000
    131 H3A        81.0169   60.3696   36.2756 dc         1 CLA      0.041100
    132 H2A        79.9404   57.6735   35.7880 dc         1 CLA      0.083100
    133 H2         83.4809   55.3885   35.8709 da         1 CLA      0.180900
    134 H18        85.3052   60.5530   46.2537 dc         1 CLA     -0.003900
    135 H13        86.0068   59.2475   41.0480 dc         1 CLA      0.019700
    136 H12        81.3491   55.1679   34.0564 dc         1 CLA      0.120400
    137 H11        82.6069   55.4268   32.9038 dc         1 CLA      0.120400
    138 C1         68.5037   61.8484   49.6046 Z1         2 LUT      0.509236
    139 C2         67.0144   61.7948   50.1296 Z2         2 LUT     -0.434695
    140 C3         66.2937   63.1099   50.4788 Z3         2 LUT      0.437453
    141 O3         66.1361   63.5237   51.8532 S1         2 LUT     -0.547129
    142 C4         66.8299   64.2517   49.6446 Z4         2 LUT     -0.468603
    143 C5         67.6539   63.9146   48.4403 Z5         2 LUT      0.279246
    144 C6         68.4455   62.8121   48.4477 Z6         2 LUT     -0.305473
    145 C7         69.0354   62.4036   47.1353 Z7         2 LUT      0.069402
    146 C8         69.8630   63.2853   46.4401 Z8         2 LUT     -0.191631
    147 C9         70.5879   62.9576   45.1473 Z9         2 LUT      0.196698
    148 C10        71.6540   63.7347   44.5922 Y1         2 LUT     -0.208611
    149 C11        72.4331   63.6540   43.3705 Y2         2 LUT      0.030784
    150 C12        73.6629   64.2208   43.2081 Y3         2 LUT     -0.220316
    151 C13        74.5961   64.1591   42.0954 Y4         2 LUT      0.215937
    152 C14        75.9096   64.6922   42.2901 Y5         2 LUT     -0.185793
    153 C15        76.9629   64.7763   41.3236 Y6         2 LUT     -0.057835
    154 C16        68.9616   60.3710   49.3055 Y7         2 LUT     -0.405615
    155 C17        69.1500   62.5448   50.7924 Y7         2 LUT     -0.405615
    156 C18        67.4816   64.9007   47.2847 Y9         2 LUT     -0.369639
    157 C19        70.1174   61.6583   44.5365 W1         2 LUT     -0.333362
    158 C20        74.0608   63.7493   40.7877 W2         2 LUT     -0.323439
    159 C21        88.2826   66.3079   34.8864 Z1         2 LUT      0.406104
    160 C22        88.9651   65.8370   33.6327 Z2         2 LUT     -0.404965
    161 C23        89.0423   66.7531   32.4745 Z3         2 LUT      0.391255
    162 O23        89.7234   66.1069   31.3761 S1         2 LUT     -0.528210
    163 C24        87.7066   67.4718   32.1752 W6         2 LUT     -0.258361
    164 C25        86.7504   67.6658   33.0660 Z5         2 LUT      0.133546
    165 C26        86.8409   66.9456   34.4566 W8         2 LUT     -0.147008
    166 C27        85.9903   67.5513   35.6533 Z7         2 LUT      0.023843
    167 C28        85.0304   66.7756   36.2893 Z8         2 LUT     -0.216987
    168 C29        84.2231   67.2543   37.4442 Z9         2 LUT      0.206524
    169 C30        83.1510   66.4653   37.8179 Y1         2 LUT     -0.215556
    170 C31        82.2891   66.6406   38.9126 Y2         2 LUT      0.025142
    171 C32        81.1395   66.0689   39.1931 Y3         2 LUT     -0.212209
    172 C33        80.2750   66.1699   40.3480 Y4         2 LUT      0.240937
    173 C34        79.1595   65.3850   40.5411 Y5         2 LUT     -0.218862
    174 C35        78.1364   65.4581   41.4960 Y6         2 LUT     -0.023547
    175 C36        89.2093   67.2453   35.6464 Y7         2 LUT     -0.393485
    176 C37        88.1000   65.0639   35.8228 Y7         2 LUT     -0.393485
    177 C38        85.4109   68.2172   32.5558 Y9         2 LUT     -0.387526
    178 C39        84.4112   68.5604   38.1755 W1         2 LUT     -0.322618
    179 C40        80.5591   67.2383   41.3008 W2         2 LUT     -0.358472
    180 H403       81.0445   68.1145   40.9906 R7         2 LUT      0.097720
    181 H402       79.6888   67.5508   41.8611 R7         2 LUT      0.097720
    182 H401       81.2696   66.8503   42.0959 R7         2 LUT      0.097720
    183 H393       84.8653   69.3617   37.5787 R4         2 LUT      0.082505
    184 H392       83.4253   69.0168   38.2943 R4         2 LUT      0.082505
    185 H391       84.8390   68.4643   39.1474 R4         2 LUT      0.082505
    186 H383       85.0972   68.9931   33.2448 R1         2 LUT      0.104030
    187 H382       85.4852   68.6087   31.5775 R1         2 LUT      0.104030
    188 H381       84.6684   67.4380   32.5329 R1         2 LUT      0.104030
    189 H373       87.4026   64.3855   35.3040 T4         2 LUT      0.089537
    190 H372       89.1403   64.6378   35.8455 T4         2 LUT      0.089537
    191 H371       87.7914   65.2213   36.8603 T4         2 LUT      0.089537
    192 H363       89.5575   68.0439   35.0662 T4         2 LUT      0.089537
    193 H362       88.7042   67.7409   36.4528 T4         2 LUT      0.089537
    194 H361       90.0771   66.7567   36.0134 T4         2 LUT      0.089537
    195 H222       89.9955   65.6588   33.8828 U2         2 LUT      0.127376
    196 H221       88.5063   64.8950   33.3530 U2         2 LUT      0.127376
    197 H203       74.0489   62.6893   40.7408 R7         2 LUT      0.087068
    198 H202       73.1350   64.2726   40.5552 R7         2 LUT      0.087068
    199 H201       74.7378   64.1004   39.9801 R7         2 LUT      0.087068
    200 H193       69.7855   61.8939   43.5118 R4         2 LUT      0.089716
    201 H192       70.9321   60.9609   44.3266 R4         2 LUT      0.089716
    202 H191       69.2624   61.1133   45.0365 R4         2 LUT      0.089716
    203 H183       66.5636   65.5021   47.2077 R1         2 LUT      0.094572
    204 H182       68.2691   65.5739   47.2530 R1         2 LUT      0.094572
    205 H181       67.5606   64.3330   46.3796 R1         2 LUT      0.094572
    206 H173       70.3198   62.4925   50.7220 T4         2 LUT      0.093752
    207 H172       68.8061   63.5863   50.9837 T4         2 LUT      0.093752
    208 H171       68.8541   62.0453   51.7691 T4         2 LUT      0.093752
    209 H163       68.3801   59.9538   48.4612 T4         2 LUT      0.093752
    210 H162       69.9550   60.3122   48.9182 T4         2 LUT      0.093752
    211 H161       68.9620   59.7628   50.2099 T4         2 LUT      0.093752
    212 HO3        66.4742   62.8780   52.4686 Q1         2 LUT      0.300121
    213 H8         70.1380   64.2535   46.8948 U7         2 LUT      0.080784
    214 H7         68.9591   61.3272   47.0139 U6         2 LUT      0.042190
    215 H42        65.9520   64.8224   49.3675 U5         2 LUT      0.145166
    216 H41        67.2963   65.0856   50.2984 U5         2 LUT      0.145166
    217 H35        78.3507   65.9528   42.4673 T3         2 LUT      0.077919
    218 H34        79.0284   64.7475   39.6823 T2         2 LUT      0.073626
    219 H32        80.6593   65.4170   38.5209 T1         2 LUT      0.092510
    220 H31        82.7091   67.2670   39.7566 U9         2 LUT      0.070048
    221 H30        82.9989   65.5330   37.2399 U8         2 LUT      0.085442
    222 H3         65.2255   62.8902   50.2353 U3         2 LUT     -0.031596
    223 H28        84.8011   65.8277   35.8229 U7         2 LUT      0.084728
    224 H27        86.1673   68.5810   35.9795 U6         2 LUT      0.087291
    225 H26        86.2571   66.1071   34.1409 Q6         2 LUT      0.075325
    226 H24        87.6613   67.8789   31.2397 Q5         2 LUT      0.094482
    227 H23        89.6569   67.5454   32.8875 U3         2 LUT     -0.024869
    228 H22        66.4018   61.3595   49.3848 U2         2 LUT      0.127376
    229 H21        66.8645   61.0183   50.8971 U2         2 LUT      0.127376
    230 H15        76.9088   64.2149   40.4092 T3         2 LUT      0.093200
    231 H14        76.1184   65.0932   43.2886 T2         2 LUT      0.068865
    232 H12        74.0052   64.6749   44.1083 T1         2 LUT      0.095507
    233 H11        71.9885   63.0523   42.5860 U9         2 LUT      0.068930
    234 H10        71.9313   64.5862   45.2585 U8         2 LUT      0.083911
    235 H1         89.2306   65.9756   30.6083 Q1         2 LUT      0.297311
@<TRIPOS>BOND
    1     6     1 1
    2     7     2 1
    3     8     3 1
    4     9     4 1
    5    11     4 1
    6    12     6 1
    7    13     9 1
    8    16     9 1
    9    25     5 1
   10    25    16 1
   11    26    10 1
   12    26    17 1
   13    27    18 1
   14    28    14 1
   15    28    19 1
   16    29    12 1
   17    30    13 1
   18    31    24 1
   19    32     1 1
   20    32    25 1
   21    33    21 1
   22    33    26 1
   23    34    22 1
   24    34    27 1
   25    35    23 1
   26    35    28 1
   27    36    12 1
   28    36    24 1
   29    37    13 1
   30    37    15 1
   31    38    31 1
   32    39    20 1
   33    39    32 1
   34    40     2 1
   35    40    33 1
   36    41     3 1
   37    41    34 1
   38    42     4 1
   39    42    35 1
   40    43    38 1
   41    44     5 1
   42    44    17 1
   43    44    39 1
   44    45    10 1
   45    45    18 1
   46    45    40 1
   47    46    19 1
   48    46    41 1
   49    47    14 1
   50    47    16 1
   51    47    42 1
   52    48    38 1
   53    49    48 1
   54    50    49 1
   55    51    50 1
   56    52    51 1
   57    53    51 1
   58    54    53 1
   59    55    54 1
   60    56    55 1
   61    57    56 1
   62    58    56 1
   63    59    58 1
   64    60    59 1
   65    61    60 1
   66    62    61 1
   67    63    61 1
   68    64    27 1
   69    64    46 1
   70    65     5 1
   71    65    10 1
   72    65    64 1
   73    65    14 1
   74    66    23 1
   75    67    23 1
   76    68    23 1
   77    69    22 1
   78    70    22 1
   79    71    22 1
   80    72    21 1
   81    73    21 1
   82    74    21 1
   83    75    20 1
   84    76    20 1
   85    77    20 1
   86    78    15 1
   87    79    15 1
   88    80    15 1
   89    81     8 1
   90    82     8 1
   91    83     8 1
   92    84     7 1
   93    85     7 1
   94    86     6 1
   95    87     6 1
   96    88     3 1
   97    89     3 1
   98    90     1 1
   99    91     1 1
  100    92    63 1
  101    93    63 1
  102    94    63 1
  103    95    62 1
  104    96    62 1
  105    97    62 1
  106    98    60 1
  107    99    60 1
  108   100    59 1
  109   101    59 1
  110   102    58 1
  111   103    58 1
  112   104    57 1
  113   105    57 1
  114   106    57 1
  115   107    55 1
  116   108    55 1
  117   109    54 1
  118   110    54 1
  119   111    53 1
  120   112    53 1
  121   113    19 1
  122   114    18 1
  123   115    17 1
  124   116     9 1
  125   117     2 1
  126   118    52 1
  127   119    52 1
  128   120    52 1
  129   121    51 1
  130   122    50 1
  131   123    50 1
  132   124    49 1
  133   125    49 1
  134   126    48 1
  135   127    48 1
  136   128    43 1
  137   129    43 1
  138   130    43 1
  139   131    39 1
  140   132    32 1
  141   133    31 1
  142   134    61 1
  143   135    56 1
  144   136    24 1
  145   137    24 1
  146   139   138 1
  147   140   139 1
  148   141   140 1
  149   142   140 1
  150   143   142 1
  151   144   138 1
  152   144   143 1
  153   145   144 1
  154   146   145 1
  155   147   146 1
  156   148   147 1
  157   149   148 1
  158   150   149 1
  159   151   150 1
  160   152   151 1
  161   153   152 1
  162   154   138 1
  163   155   138 1
  164   156   143 1
  165   157   147 1
  166   158   151 1
  167   160   159 1
  168   161   160 1
  169   162   161 1
  170   163   161 1
  171   164   163 1
  172   165   159 1
  173   165   164 1
  174   166   165 1
  175   167   166 1
  176   168   167 1
  177   169   168 1
  178   170   169 1
  179   171   170 1
  180   172   171 1
  181   173   172 1
  182   174   153 1
  183   174   173 1
  184   175   159 1
  185   176   159 1
  186   177   164 1
  187   178   168 1
  188   179   172 1
  189   180   179 1
  190   181   179 1
  191   182   179 1
  192   183   178 1
  193   184   178 1
  194   185   178 1
  195   186   177 1
  196   187   177 1
  197   188   177 1
  198   189   176 1
  199   190   176 1
  200   191   176 1
  201   192   175 1
  202   193   175 1
  203   194   175 1
  204   195   160 1
  205   196   160 1
  206   197   158 1
  207   198   158 1
  208   199   158 1
  209   200   157 1
  210   201   157 1
  211   202   157 1
  212   203   156 1
  213   204   156 1
  214   205   156 1
  215   206   155 1
  216   207   155 1
  217   208   155 1
  218   209   154 1
  219   210   154 1
  220   211   154 1
  221   212   141 1
  222   213   146 1
  223   214   145 1
  224   215   142 1
  225   216   142 1
  226   217   174 1
  227   218   173 1
  228   219   171 1
  229   220   170 1
  230   221   169 1
  231   222   140 1
  232   223   167 1
  233   224   166 1
  234   225   165 1
  235   226   163 1
  236   227   161 1
  237   228   139 1
  238   229   139 1
  239   230   153 1
  240   231   152 1
  241   232   150 1
  242   233   149 1
  243   234   148 1
  244   235   162 1
  245   65    153 1
  246   65    174 1
@<TRIPOS>SUBSTRUCTURE
      1 CLA               1 ****               0 ****  **** 
      2 LUT             138 ****               0 ****  **** 
