@<TRIPOS>MOLECULE
Cpptraj generated mol2 file.
  235   246     2     0     0
SMALL
USER_CHARGES


@<TRIPOS>ATOM
      1 CAA        79.8276   58.8298   33.5119 a2         1 CLA     -0.055900
      2 CAB        79.1828   61.8447   42.7670 c8         1 CLA     -0.148500
      3 CAC        72.2588   57.9591   41.4521 a2         1 CLA     -0.012600
      4 CAD        75.2568   56.7501   33.8983 ck         1 CLA      0.398800
      5 NA         78.4786   58.8964   36.7575 ns         1 CLA     -0.225500
      6 CBA        81.1353   58.7335   32.6743 a2         1 CLA     -0.135000
      7 CBB        79.7844   63.0462   43.0364 c0         1 CLA     -0.395200
      8 CBC        72.3122   56.3681   41.3511 a3         1 CLA     -0.037700
      9 CBD        76.8598   57.1152   33.7034 a1         1 CLA     -0.053900
     10 NB         78.1292   60.1527   39.5445 nm         1 CLA     -0.295700
     11 OBD        74.6449   56.3071   32.9310 o2         1 CLA     -0.494600
     12 CGA        81.4553   57.4170   31.9485 c4         1 CLA      0.827000
     13 CGD        77.7292   55.8739   33.3593 c4         1 CLA      0.655300
     14 ND         75.5901   58.0923   37.1052 nm         1 CLA     -0.291600
     15 CED        78.1767   53.6380   33.7591 a3         1 CLA      0.005400
     16 CHA        77.1909   57.6675   35.1672 cs         1 CLA     -0.123800
     17 CHB        80.1538   60.1748   38.0774 aa         1 CLA     -0.291900
     18 CHC        76.7893   60.1496   41.6038 aa         1 CLA     -0.090400
     19 CHD        73.7404   57.8461   38.5815 aa         1 CLA     -0.052000
     20 CMA        82.0755   58.3623   36.3207 a3         1 CLA     -0.230700
     21 CMB        81.5110   61.6096   40.4786 a3         1 CLA     -0.180800
     22 CMC        74.2326   59.7417   43.2481 a3         1 CLA     -0.134000
     23 CMD        72.3552   56.5847   35.9119 a3         1 CLA     -0.141100
     24 C1         81.9686   55.1856   32.6175 a2         1 CLA      0.023000
     25 C1A        78.4496   58.1646   35.6215 ac         1 CLA     -0.015100
     26 C1B        79.4129   60.5262   39.2459 cr         1 CLA      0.054700
     27 C1C        75.6638   59.5805   41.0796 cn         1 CLA     -0.005600
     28 C1D        74.3691   57.5867   37.3780 ap         1 CLA     -0.047300
     29 O1A        81.2015   57.1268   30.7666 o2         1 CLA     -0.610800
     30 O1D        78.6323   55.8562   32.5158 o2         1 CLA     -0.558200
     31 C2         83.0212   54.6202   33.6352 c8         1 CLA     -0.325100
     32 C2A        79.8322   58.1499   34.8971 a1         1 CLA      0.098600
     33 C2B        80.0441   61.1292   40.3929 cb         1 CLA      0.088500
     34 C2C        74.4362   59.3267   41.8344 cb         1 CLA      0.053700
     35 C2D        73.8212   57.0799   36.1569 cb         1 CLA      0.058900
     36 O2A        81.8452   56.5681   32.9966 o1         1 CLA     -0.437200
     37 O2D        77.3591   54.7803   34.0386 o1         1 CLA     -0.357600
     38 C3         84.2117   54.2052   33.2268 c5         1 CLA      0.031200
     39 C3A        80.7679   58.9677   35.8556 a1         1 CLA      0.166800
     40 C3B        79.1254   61.1196   41.4624 cb         1 CLA      0.035000
     41 C3C        73.5734   58.5947   41.0080 cb         1 CLA     -0.089900
     42 C3D        74.8658   57.0847   35.2530 cb         1 CLA     -0.035900
     43 C4         84.5380   52.8063   32.7205 a3         1 CLA     -0.053300
     44 C4A        79.7503   59.4024   36.9706 ac         1 CLA      0.001800
     45 C4B        77.9310   60.4277   40.9348 cn         1 CLA     -0.020900
     46 C4C        74.2505   58.5079   39.7396 cr         1 CLA     -0.044400
     47 C4D        75.9855   57.6429   35.9082 c6         1 CLA     -0.046000
     48 C5         85.3306   55.2791   33.1145 a2         1 CLA     -0.070400
     49 C6         85.2238   56.5494   34.0388 a2         1 CLA      0.043900
     50 C7         85.3743   56.0913   35.4884 a2         1 CLA     -0.150000
     51 C8         85.6215   57.2939   36.5178 a1         1 CLA      0.064200
     52 C9         86.9092   58.1278   36.1237 a3         1 CLA     -0.259300
     53 C10        85.5465   56.8091   37.9922 a2         1 CLA     -0.071900
     54 C11        85.6620   57.8537   39.0355 a2         1 CLA      0.014500
     55 C12        85.7486   57.1814   40.4720 a2         1 CLA     -0.112100
     56 C13        85.8665   58.1488   41.6495 a1         1 CLA      0.089200
     57 C14        87.1714   58.9495   41.7056 a3         1 CLA     -0.239100
     58 C15        85.5896   57.4692   43.0038 a2         1 CLA     -0.102200
     59 C16        84.2478   56.8279   43.2403 a2         1 CLA      0.023900
     60 C17        83.9823   56.3797   44.7092 a2         1 CLA     -0.105700
     61 C18        84.8900   55.2327   45.2836 a1         1 CLA      0.206800
     62 C19        84.6085   55.2079   46.8034 a3         1 CLA     -0.280100
     63 C20        84.5455   53.9560   44.5370 a3         1 CLA     -0.280100
     64 NC         75.4729   59.0647   39.7915 nx         1 CLA     -0.309200
     65 MG         76.8216   59.2437   38.2559 mg         1 CLA      0.895000
     66 HMD3       72.1073   56.6391   34.8204 dc         1 CLA      0.064300
     67 HMD2       72.2499   55.5494   36.2312 dc         1 CLA      0.064300
     68 HMD1       71.8028   57.4044   36.3969 dc         1 CLA      0.064300
     69 HMC3       74.8265   59.1555   43.9498 dc         1 CLA      0.052100
     70 HMC2       74.5378   60.8182   43.2999 dc         1 CLA      0.052100
     71 HMC1       73.1716   59.7956   43.5207 dc         1 CLA      0.052100
     72 HMB3       81.7235   61.6834   41.5733 dc         1 CLA      0.063600
     73 HMB2       82.2401   60.9036   40.0443 dc         1 CLA      0.063600
     74 HMB1       81.6494   62.6186   40.0539 dc         1 CLA      0.063600
     75 HMA3       82.6844   58.0709   35.4800 dc         1 CLA      0.058300
     76 HMA2       82.7270   58.9692   36.9440 dc         1 CLA      0.058300
     77 HMA1       81.8652   57.5436   37.0038 dc         1 CLA      0.058300
     78 HED3       79.1841   53.8209   34.0361 dc         1 CLA      0.079300
     79 HED2       77.6932   52.6811   34.1468 dc         1 CLA      0.079300
     80 HED1       78.0529   53.3648   32.6757 dc         1 CLA      0.079300
     81 HBC3       72.3742   55.9513   40.3915 dc         1 CLA      0.016300
     82 HBC2       73.2528   56.1396   41.7553 dc         1 CLA      0.016300
     83 HBC1       71.3422   56.0075   41.7639 dc         1 CLA      0.016300
     84 HBB2       79.7435   63.4968   44.0401 da         1 CLA      0.183000
     85 HBB1       80.4630   63.5410   42.3749 da         1 CLA      0.183000
     86 HBA2       80.9543   59.4597   31.9256 dc         1 CLA      0.029400
     87 HBA1       81.9766   59.0524   33.2872 dc         1 CLA      0.029400
     88 HAC2       72.1416   58.1987   42.5360 dc         1 CLA      0.029300
     89 HAC1       71.4447   58.3653   40.8448 dc         1 CLA      0.029300
     90 HAA2       79.0541   58.3014   33.0103 dc         1 CLA      0.028700
     91 HAA1       79.4239   59.8398   33.6483 dc         1 CLA      0.028700
     92 H203       84.9306   53.0683   44.9773 dc         1 CLA      0.065600
     93 H202       83.4496   53.7570   44.4966 dc         1 CLA      0.065600
     94 H201       85.0453   53.9975   43.5926 dc         1 CLA      0.065600
     95 H193       85.3629   54.5832   47.2796 dc         1 CLA      0.065600
     96 H192       84.9073   56.1658   47.1956 dc         1 CLA      0.065600
     97 H191       83.5826   54.9856   46.9972 dc         1 CLA      0.065600
     98 H172       84.1304   57.2705   45.3519 dc         1 CLA      0.027600
     99 H171       82.9543   56.1179   44.6684 dc         1 CLA      0.027600
    100 H162       83.4934   57.5911   42.9105 dc         1 CLA      0.002900
    101 H161       84.1316   55.9488   42.5517 dc         1 CLA      0.002900
    102 H152       86.3140   56.7313   43.1822 dc         1 CLA      0.029100
    103 H151       85.5639   58.2662   43.7933 dc         1 CLA      0.029100
    104 H143       87.5062   59.2374   40.7648 dc         1 CLA      0.063600
    105 H142       86.9464   59.9080   42.2097 dc         1 CLA      0.063600
    106 H141       88.0920   58.5192   42.1930 dc         1 CLA      0.063600
    107 H122       84.7841   56.6137   40.4985 dc         1 CLA      0.032500
    108 H121       86.5342   56.3761   40.5546 dc         1 CLA      0.032500
    109 H112       86.6371   58.3709   38.9372 dc         1 CLA      0.006600
    110 H111       84.8111   58.5503   39.0540 dc         1 CLA      0.006600
    111 H102       84.5397   56.3606   38.1730 dc         1 CLA      0.024100
    112 H101       86.4340   56.1581   38.0949 dc         1 CLA      0.024100
    113 HHD        72.8128   57.3244   38.6564 da         1 CLA      0.174300
    114 HHC        76.7405   60.4976   42.6795 da         1 CLA      0.136800
    115 HHB        81.1844   60.4851   38.0008 da         1 CLA      0.138300
    116 HBD        76.8886   57.9003   32.9913 dc         1 CLA      0.107700
    117 HAB        78.5401   61.4604   43.6325 da         1 CLA      0.155200
    118 H93        87.1019   58.9114   36.9012 dc         1 CLA      0.069500
    119 H92        87.7361   57.4686   36.0420 dc         1 CLA      0.069500
    120 H91        86.8130   58.5745   35.1836 dc         1 CLA      0.069500
    121 H8         84.7195   57.9695   36.4198 dc         1 CLA      0.029300
    122 H72        84.4036   55.6226   35.6355 dc         1 CLA      0.044400
    123 H71        86.2493   55.4310   35.6311 dc         1 CLA      0.044400
    124 H62        86.1136   57.1611   33.8908 dc         1 CLA      0.015600
    125 H61        84.3039   57.0882   33.8537 dc         1 CLA      0.015600
    126 H52        86.3065   54.8673   33.3625 dc         1 CLA      0.033200
    127 H51        85.2657   55.5365   32.0863 dc         1 CLA      0.033200
    128 H43        85.0008   52.9793   31.7037 dc         1 CLA      0.037000
    129 H42        85.0508   52.2647   33.5146 dc         1 CLA      0.037000
    130 H41        83.6621   52.1783   32.6631 dc         1 CLA      0.037000
    131 H3A        80.9416   59.9272   35.4194 dc         1 CLA      0.041100
    132 H2A        80.1225   57.1375   34.7786 dc         1 CLA      0.083100
    133 H2         82.7917   54.6141   34.7327 da         1 CLA      0.180900
    134 H18        85.8934   55.4644   44.9974 dc         1 CLA     -0.003900
    135 H13        85.0292   58.8234   41.4553 dc         1 CLA      0.019700
    136 H12        81.0140   54.6877   32.5913 dc         1 CLA      0.120400
    137 H11        82.5198   55.2730   31.6533 dc         1 CLA      0.120400
    138 C1         69.0509   61.1565   49.1025 Z1         2 LUT      0.509236
    139 C2         68.7935   62.0823   50.3284 Z2         2 LUT     -0.434695
    140 C3         67.3015   62.4093   50.3388 Z3         2 LUT      0.437453
    141 O3         67.0443   63.3108   51.4377 S1         2 LUT     -0.547129
    142 C4         66.8989   63.1004   49.0721 Z4         2 LUT     -0.468603
    143 C5         67.6834   62.7067   47.8346 Z5         2 LUT      0.279246
    144 C6         68.6136   61.7397   47.7777 Z6         2 LUT     -0.305473
    145 C7         69.4309   61.4071   46.5612 Z7         2 LUT      0.069402
    146 C8         69.9781   62.1799   45.6401 Z8         2 LUT     -0.191631
    147 C9         70.7848   61.9154   44.4064 Z9         2 LUT      0.196698
    148 C10        71.8342   62.6937   44.0149 Y1         2 LUT     -0.208611
    149 C11        72.5926   62.6471   42.8243 Y2         2 LUT      0.030784
    150 C12        73.7002   63.4311   42.4701 Y3         2 LUT     -0.220316
    151 C13        74.5513   63.2550   41.3781 Y4         2 LUT      0.215937
    152 C14        75.8341   63.7646   41.4855 Y5         2 LUT     -0.185793
    153 C15        76.9443   63.7539   40.6089 Y6         2 LUT     -0.057835
    154 C16        68.3655   59.7742   49.1799 Y7         2 LUT     -0.405615
    155 C17        70.5765   60.7649   49.1124 Y7         2 LUT     -0.405615
    156 C18        67.3325   63.6772   46.7300 Y9         2 LUT     -0.369639
    157 C19        70.1915   60.8401   43.4962 W1         2 LUT     -0.333362
    158 C20        74.0073   62.6747   40.0779 W2         2 LUT     -0.323439
    159 C21        88.3410   65.5003   34.6592 Z1         2 LUT      0.406104
    160 C22        89.0862   65.0054   33.3332 Z2         2 LUT     -0.404965
    161 C23        89.4171   66.2502   32.5139 Z3         2 LUT      0.391255
    162 O23        90.2838   65.9175   31.4126 S1         2 LUT     -0.528210
    163 C24        88.1709   67.1122   32.2856 W6         2 LUT     -0.258361
    164 C25        87.0426   67.1061   33.0503 Z5         2 LUT      0.133546
    165 C26        86.9130   66.2017   34.3012 W8         2 LUT     -0.147008
    166 C27        86.1051   66.7895   35.4539 Z7         2 LUT      0.023843
    167 C28        84.8776   66.3616   35.8680 Z8         2 LUT     -0.216987
    168 C29        84.3041   66.7050   37.2171 Z9         2 LUT      0.206524
    169 C30        83.2462   65.8770   37.5539 Y1         2 LUT     -0.215556
    170 C31        82.2908   65.9984   38.6434 Y2         2 LUT      0.025142
    171 C32        81.1947   65.2951   38.8019 Y3         2 LUT     -0.212209
    172 C33        80.2487   65.5453   39.8291 Y4         2 LUT      0.240937
    173 C34        79.1399   64.7479   39.8218 Y5         2 LUT     -0.218862
    174 C35        78.0322   64.5734   40.7064 Y6         2 LUT     -0.023547
    175 C36        89.3582   66.3124   35.5269 Y7         2 LUT     -0.393485
    176 C37        88.1000   64.2128   35.4667 Y7         2 LUT     -0.393485
    177 C38        85.8823   67.9649   32.7513 Y9         2 LUT     -0.387526
    178 C39        84.7755   67.8631   38.0560 W1         2 LUT     -0.322618
    179 C40        80.5484   66.5838   40.8248 W2         2 LUT     -0.358472
    180 H403       81.4984   66.4415   41.2705 R7         2 LUT      0.097720
    181 H402       80.6532   67.5794   40.4331 R7         2 LUT      0.097720
    182 H401       79.7893   66.7020   41.6559 R7         2 LUT      0.097720
    183 H393       85.8881   68.0631   38.0419 R4         2 LUT      0.082505
    184 H392       84.3445   68.8091   37.6764 R4         2 LUT      0.082505
    185 H391       84.5882   67.7340   39.1448 R4         2 LUT      0.082505
    186 H383       86.0546   68.9808   33.1404 R1         2 LUT      0.104030
    187 H382       85.7837   68.1476   31.7031 R1         2 LUT      0.104030
    188 H381       84.8977   67.5225   33.0752 R1         2 LUT      0.104030
    189 H373       88.9707   63.7535   35.9477 T4         2 LUT      0.089537
    190 H372       87.3227   64.3302   36.1826 T4         2 LUT      0.089537
    191 H371       87.7292   63.3763   34.8486 T4         2 LUT      0.089537
    192 H363       89.0505   66.5208   36.5966 T4         2 LUT      0.089537
    193 H362       90.3249   65.9175   35.5887 T4         2 LUT      0.089537
    194 H361       89.4099   67.2575   35.0909 T4         2 LUT      0.089537
    195 H222       90.1051   64.6034   33.4809 U2         2 LUT      0.127376
    196 H221       88.3856   64.3721   32.7696 U2         2 LUT      0.127376
    197 H203       73.1459   63.1656   39.7236 R7         2 LUT      0.087068
    198 H202       74.6891   62.6994   39.2466 R7         2 LUT      0.087068
    199 H201       73.7270   61.6508   40.1978 R7         2 LUT      0.087068
    200 H193       69.6645   60.0847   44.1477 R4         2 LUT      0.089716
    201 H192       69.4002   61.2680   42.9725 R4         2 LUT      0.089716
    202 H191       70.7710   60.3876   42.7364 R4         2 LUT      0.089716
    203 H183       66.3497   64.0069   46.9521 R1         2 LUT      0.094572
    204 H182       68.0370   64.5508   46.7288 R1         2 LUT      0.094572
    205 H181       67.3541   63.0690   45.7579 R1         2 LUT      0.094572
    206 H173       70.8732   60.2890   50.0572 T4         2 LUT      0.093752
    207 H172       70.8805   60.0892   48.3159 T4         2 LUT      0.093752
    208 H171       71.2349   61.6188   49.0066 T4         2 LUT      0.093752
    209 H163       67.2914   59.7147   48.9675 T4         2 LUT      0.093752
    210 H162       68.9360   59.2608   48.3599 T4         2 LUT      0.093752
    211 H161       68.5965   59.3243   50.1204 T4         2 LUT      0.093752
    212 HO3        67.0029   62.7650   52.2118 Q1         2 LUT      0.300121
    213 H8         70.0120   63.1927   45.9410 U7         2 LUT      0.080784
    214 H7         69.5453   60.2968   46.5575 U6         2 LUT      0.042190
    215 H42        65.8229   63.1040   48.8505 U5         2 LUT      0.145166
    216 H41        67.0614   64.1335   49.2445 U5         2 LUT      0.145166
    217 H35        78.0507   65.2772   41.5021 T3         2 LUT      0.077919
    218 H34        79.0413   63.9603   39.0280 T2         2 LUT      0.073626
    219 H32        80.8827   64.3954   38.1447 T1         2 LUT      0.092510
    220 H31        82.5306   66.8192   39.3079 U9         2 LUT      0.070048
    221 H30        82.9517   65.1053   36.7949 U8         2 LUT      0.085442
    222 H3         66.6050   61.5783   50.3032 U3         2 LUT     -0.031596
    223 H28        84.3295   65.6365   35.2326 U7         2 LUT      0.084728
    224 H27        86.6898   67.2961   36.2559 U6         2 LUT      0.087291
    225 H26        86.3103   65.4072   33.8209 Q6         2 LUT      0.075325
    226 H24        88.0733   67.7824   31.4246 Q5         2 LUT      0.094482
    227 H23        90.1401   66.8367   33.1167 U3         2 LUT     -0.024869
    228 H22        69.1677   61.5825   51.2564 U2         2 LUT      0.127376
    229 H21        69.4844   63.0056   50.1357 U2         2 LUT      0.127376
    230 H15        77.0359   63.1178   39.7182 T3         2 LUT      0.093200
    231 H14        76.1950   64.2497   42.3625 T2         2 LUT      0.068865
    232 H12        74.0433   63.9989   43.3374 T1         2 LUT      0.095507
    233 H11        72.3054   61.9707   42.0302 U9         2 LUT      0.068930
    234 H10        72.1443   63.5816   44.5503 U8         2 LUT      0.083911
    235 H1         89.8275   65.5048   30.6471 Q1         2 LUT      0.297311
@<TRIPOS>BOND
    1     6     1 1
    2     7     2 1
    3     8     3 1
    4     9     4 1
    5    11     4 1
    6    12     6 1
    7    13     9 1
    8    16     9 1
    9    25     5 1
   10    25    16 1
   11    26    10 1
   12    26    17 1
   13    27    18 1
   14    28    14 1
   15    28    19 1
   16    29    12 1
   17    30    13 1
   18    31    24 1
   19    32     1 1
   20    32    25 1
   21    33    21 1
   22    33    26 1
   23    34    22 1
   24    34    27 1
   25    35    23 1
   26    35    28 1
   27    36    12 1
   28    36    24 1
   29    37    13 1
   30    37    15 1
   31    38    31 1
   32    39    20 1
   33    39    32 1
   34    40     2 1
   35    40    33 1
   36    41     3 1
   37    41    34 1
   38    42     4 1
   39    42    35 1
   40    43    38 1
   41    44     5 1
   42    44    17 1
   43    44    39 1
   44    45    10 1
   45    45    18 1
   46    45    40 1
   47    46    19 1
   48    46    41 1
   49    47    14 1
   50    47    16 1
   51    47    42 1
   52    48    38 1
   53    49    48 1
   54    50    49 1
   55    51    50 1
   56    52    51 1
   57    53    51 1
   58    54    53 1
   59    55    54 1
   60    56    55 1
   61    57    56 1
   62    58    56 1
   63    59    58 1
   64    60    59 1
   65    61    60 1
   66    62    61 1
   67    63    61 1
   68    64    27 1
   69    64    46 1
   70    65     5 1
   71    65    10 1
   72    65    64 1
   73    65    14 1
   74    66    23 1
   75    67    23 1
   76    68    23 1
   77    69    22 1
   78    70    22 1
   79    71    22 1
   80    72    21 1
   81    73    21 1
   82    74    21 1
   83    75    20 1
   84    76    20 1
   85    77    20 1
   86    78    15 1
   87    79    15 1
   88    80    15 1
   89    81     8 1
   90    82     8 1
   91    83     8 1
   92    84     7 1
   93    85     7 1
   94    86     6 1
   95    87     6 1
   96    88     3 1
   97    89     3 1
   98    90     1 1
   99    91     1 1
  100    92    63 1
  101    93    63 1
  102    94    63 1
  103    95    62 1
  104    96    62 1
  105    97    62 1
  106    98    60 1
  107    99    60 1
  108   100    59 1
  109   101    59 1
  110   102    58 1
  111   103    58 1
  112   104    57 1
  113   105    57 1
  114   106    57 1
  115   107    55 1
  116   108    55 1
  117   109    54 1
  118   110    54 1
  119   111    53 1
  120   112    53 1
  121   113    19 1
  122   114    18 1
  123   115    17 1
  124   116     9 1
  125   117     2 1
  126   118    52 1
  127   119    52 1
  128   120    52 1
  129   121    51 1
  130   122    50 1
  131   123    50 1
  132   124    49 1
  133   125    49 1
  134   126    48 1
  135   127    48 1
  136   128    43 1
  137   129    43 1
  138   130    43 1
  139   131    39 1
  140   132    32 1
  141   133    31 1
  142   134    61 1
  143   135    56 1
  144   136    24 1
  145   137    24 1
  146   139   138 1
  147   140   139 1
  148   141   140 1
  149   142   140 1
  150   143   142 1
  151   144   138 1
  152   144   143 1
  153   145   144 1
  154   146   145 1
  155   147   146 1
  156   148   147 1
  157   149   148 1
  158   150   149 1
  159   151   150 1
  160   152   151 1
  161   153   152 1
  162   154   138 1
  163   155   138 1
  164   156   143 1
  165   157   147 1
  166   158   151 1
  167   160   159 1
  168   161   160 1
  169   162   161 1
  170   163   161 1
  171   164   163 1
  172   165   159 1
  173   165   164 1
  174   166   165 1
  175   167   166 1
  176   168   167 1
  177   169   168 1
  178   170   169 1
  179   171   170 1
  180   172   171 1
  181   173   172 1
  182   174   153 1
  183   174   173 1
  184   175   159 1
  185   176   159 1
  186   177   164 1
  187   178   168 1
  188   179   172 1
  189   180   179 1
  190   181   179 1
  191   182   179 1
  192   183   178 1
  193   184   178 1
  194   185   178 1
  195   186   177 1
  196   187   177 1
  197   188   177 1
  198   189   176 1
  199   190   176 1
  200   191   176 1
  201   192   175 1
  202   193   175 1
  203   194   175 1
  204   195   160 1
  205   196   160 1
  206   197   158 1
  207   198   158 1
  208   199   158 1
  209   200   157 1
  210   201   157 1
  211   202   157 1
  212   203   156 1
  213   204   156 1
  214   205   156 1
  215   206   155 1
  216   207   155 1
  217   208   155 1
  218   209   154 1
  219   210   154 1
  220   211   154 1
  221   212   141 1
  222   213   146 1
  223   214   145 1
  224   215   142 1
  225   216   142 1
  226   217   174 1
  227   218   173 1
  228   219   171 1
  229   220   170 1
  230   221   169 1
  231   222   140 1
  232   223   167 1
  233   224   166 1
  234   225   165 1
  235   226   163 1
  236   227   161 1
  237   228   139 1
  238   229   139 1
  239   230   153 1
  240   231   152 1
  241   232   150 1
  242   233   149 1
  243   234   148 1
  244   235   162 1
  245   65    153 1
  246   65    174 1
@<TRIPOS>SUBSTRUCTURE
      1 CLA               1 ****               0 ****  **** 
      2 LUT             138 ****               0 ****  **** 
