@<TRIPOS>MOLECULE
Cpptraj generated mol2 file.
  235   246     2     0     0
SMALL
USER_CHARGES


@<TRIPOS>ATOM
      1 CAA        76.5792   58.1546   34.6938 a2         1 CLA     -0.055900
      2 CAB        76.9290   62.2565   43.4331 c8         1 CLA     -0.148500
      3 CAC        70.2259   57.8216   43.3595 a2         1 CLA     -0.012600
      4 CAD        72.6198   55.5549   35.9097 ck         1 CLA      0.398800
      5 NA         75.6244   58.8835   37.9945 ns         1 CLA     -0.225500
      6 CBA        77.8199   58.0456   33.8073 a2         1 CLA     -0.135000
      7 CBB        76.9138   61.6638   44.6388 c0         1 CLA     -0.395200
      8 CBC        70.3845   56.3493   43.5101 a3         1 CLA     -0.037700
      9 CBD        74.1479   56.0865   35.6883 a1         1 CLA     -0.053900
     10 NB         75.5919   60.4455   40.5153 nm         1 CLA     -0.295700
     11 OBD        72.0592   54.8060   35.1624 o2         1 CLA     -0.494600
     12 CGA        78.4546   56.6472   33.6849 c4         1 CLA      0.827000
     13 CGD        75.1442   54.9876   35.8488 c4         1 CLA      0.655300
     14 ND         72.9586   57.7604   38.6583 nm         1 CLA     -0.291600
     15 CED        76.1737   53.4302   37.3814 a3         1 CLA      0.005400
     16 CHA        74.3772   57.1563   36.7133 cs         1 CLA     -0.123800
     17 CHB        77.4497   60.2166   38.9153 aa         1 CLA     -0.291900
     18 CHC        74.4568   60.5050   42.6738 aa         1 CLA     -0.090400
     19 CHD        71.2338   57.6807   40.3775 aa         1 CLA     -0.052000
     20 CMA        79.2272   58.5380   37.1265 a3         1 CLA     -0.230700
     21 CMB        78.9448   62.0702   40.9266 a3         1 CLA     -0.180800
     22 CMC        72.2415   59.7401   44.8537 a3         1 CLA     -0.134000
     23 CMD        70.0749   55.3929   38.2652 a3         1 CLA     -0.141100
     24 C1         79.2881   54.8420   35.0630 a2         1 CLA      0.023000
     25 C1A        75.4973   57.9390   36.9679 ac         1 CLA     -0.015100
     26 C1B        76.8251   60.7503   40.1002 cr         1 CLA      0.054700
     27 C1C        73.3365   59.6981   42.4026 cn         1 CLA     -0.005600
     28 C1D        71.7817   57.2375   39.1686 ap         1 CLA     -0.047300
     29 O1A        78.3357   55.9330   32.7078 o2         1 CLA     -0.610800
     30 O1D        76.0517   54.6583   35.0636 o2         1 CLA     -0.558200
     31 C2         79.8751   54.6064   36.4544 c8         1 CLA     -0.325100
     32 C2A        76.8127   57.9282   36.1959 a1         1 CLA      0.098600
     33 C2B        77.5475   61.5033   41.0594 cb         1 CLA      0.088500
     34 C2C        72.3036   59.3624   43.3676 cb         1 CLA      0.053700
     35 C2D        71.2575   56.3006   38.1574 cb         1 CLA      0.058900
     36 O2A        79.0468   56.2593   34.8770 o1         1 CLA     -0.437200
     37 O2D        75.0801   54.3568   37.0222 o1         1 CLA     -0.357600
     38 C3         80.9144   53.7560   36.7682 c5         1 CLA      0.031200
     39 C3A        77.7739   58.9597   36.8230 a1         1 CLA      0.166800
     40 C3B        76.6331   61.6283   42.1266 cb         1 CLA      0.035000
     41 C3C        71.4330   58.4884   42.7525 cb         1 CLA     -0.089900
     42 C3D        72.2277   56.2589   37.1658 cb         1 CLA     -0.035900
     43 C4         80.6029   52.4019   37.3309 a3         1 CLA     -0.053300
     44 C4A        76.9521   59.3928   37.9745 ac         1 CLA      0.001800
     45 C4B        75.5070   60.8265   41.7785 cn         1 CLA     -0.020900
     46 C4C        71.8879   58.3539   41.4101 cr         1 CLA     -0.044400
     47 C4D        73.2633   57.1408   37.5447 c6         1 CLA     -0.046000
     48 C5         82.4053   54.0768   36.5238 a2         1 CLA     -0.070400
     49 C6         82.9941   55.3942   37.0302 a2         1 CLA      0.043900
     50 C7         83.3026   55.5096   38.5311 a2         1 CLA     -0.150000
     51 C8         83.9107   56.9586   38.8769 a1         1 CLA      0.064200
     52 C9         84.9728   57.4655   37.8552 a3         1 CLA     -0.259300
     53 C10        84.3124   57.1677   40.3102 a2         1 CLA     -0.071900
     54 C11        83.2182   56.9765   41.3254 a2         1 CLA      0.014500
     55 C12        83.6055   57.4940   42.7696 a2         1 CLA     -0.112100
     56 C13        84.0176   56.3727   43.7531 a1         1 CLA      0.089200
     57 C14        82.6652   55.5202   44.0656 a3         1 CLA     -0.239100
     58 C15        84.7683   56.8633   44.9428 a2         1 CLA     -0.102200
     59 C16        84.0319   57.6115   46.0417 a2         1 CLA      0.023900
     60 C17        84.7950   57.7859   47.3240 a2         1 CLA     -0.105700
     61 C18        84.1902   58.7814   48.3786 a1         1 CLA      0.206800
     62 C19        85.1804   58.8322   49.6082 a3         1 CLA     -0.280100
     63 C20        83.8290   60.2197   47.7955 a3         1 CLA     -0.280100
     64 NC         73.0366   59.1716   41.2080 nx         1 CLA     -0.309200
     65 MG         74.2062   59.2366   39.5552 mg         1 CLA      0.895000
     66 HMD3       70.0305   55.0054   39.2752 dc         1 CLA      0.064300
     67 HMD2       69.1693   55.9330   38.0943 dc         1 CLA      0.064300
     68 HMD1       70.1330   54.5372   37.5195 dc         1 CLA      0.064300
     69 HMC3       72.9852   60.5697   45.1020 dc         1 CLA      0.052100
     70 HMC2       71.2922   60.1601   45.0623 dc         1 CLA      0.052100
     71 HMC1       72.4840   58.9376   45.5002 dc         1 CLA      0.052100
     72 HMB3       79.2901   62.5629   41.8714 dc         1 CLA      0.063600
     73 HMB2       79.6924   61.2721   40.6233 dc         1 CLA      0.063600
     74 HMB1       78.9967   62.7727   40.1239 dc         1 CLA      0.063600
     75 HMA3       79.8340   58.5866   36.1638 dc         1 CLA      0.058300
     76 HMA2       79.6980   59.1607   37.8167 dc         1 CLA      0.058300
     77 HMA1       79.2061   57.5003   37.6209 dc         1 CLA      0.058300
     78 HED3       77.1375   53.9599   37.5521 dc         1 CLA      0.079300
     79 HED2       75.9455   52.8883   38.2734 dc         1 CLA      0.079300
     80 HED1       76.2965   52.6920   36.6071 dc         1 CLA      0.079300
     81 HBC3       69.7197   56.0311   44.2740 dc         1 CLA      0.016300
     82 HBC2       70.2491   55.7230   42.6658 dc         1 CLA      0.016300
     83 HBC1       71.3752   56.1006   43.9125 dc         1 CLA      0.016300
     84 HBB2       77.2119   62.1739   45.5932 da         1 CLA      0.183000
     85 HBB1       76.5516   60.6187   44.7773 da         1 CLA      0.183000
     86 HBA2       77.6136   58.4547   32.7311 dc         1 CLA      0.029400
     87 HBA1       78.5218   58.7359   34.2510 dc         1 CLA      0.029400
     88 HAC2       70.0338   58.2352   44.2953 dc         1 CLA      0.029300
     89 HAC1       69.3679   58.0421   42.7957 dc         1 CLA      0.029300
     90 HAA2       76.0320   57.3181   34.3749 dc         1 CLA      0.028700
     91 HAA1       75.9384   59.0102   34.4076 dc         1 CLA      0.028700
     92 H203       82.9424   60.0223   47.1884 dc         1 CLA      0.065600
     93 H202       83.6061   60.8715   48.5970 dc         1 CLA      0.065600
     94 H201       84.6617   60.5552   47.1943 dc         1 CLA      0.065600
     95 H193       84.7045   59.5204   50.3021 dc         1 CLA      0.065600
     96 H192       85.2900   57.7881   49.9479 dc         1 CLA      0.065600
     97 H191       86.1696   59.2992   49.3265 dc         1 CLA      0.065600
     98 H172       84.9285   56.7236   47.6515 dc         1 CLA      0.027600
     99 H171       85.8614   58.1234   46.9939 dc         1 CLA      0.027600
    100 H162       83.9080   58.6415   45.6597 dc         1 CLA      0.002900
    101 H161       83.0924   57.1677   46.2942 dc         1 CLA      0.002900
    102 H152       85.0139   55.9524   45.4090 dc         1 CLA      0.029100
    103 H151       85.6880   57.2622   44.5232 dc         1 CLA      0.029100
    104 H143       83.1011   54.6592   44.6920 dc         1 CLA      0.063600
    105 H142       81.9626   56.2009   44.5341 dc         1 CLA      0.063600
    106 H141       82.1736   54.9864   43.3010 dc         1 CLA      0.063600
    107 H122       84.5501   58.1101   42.7190 dc         1 CLA      0.032500
    108 H121       82.8277   58.1460   43.1593 dc         1 CLA      0.032500
    109 H112       82.3551   57.6104   41.0040 dc         1 CLA      0.006600
    110 H111       82.9114   55.9300   41.3305 dc         1 CLA      0.006600
    111 H102       85.0192   56.3757   40.6482 dc         1 CLA      0.024100
    112 H101       84.7477   58.2164   40.3802 dc         1 CLA      0.024100
    113 HHD        70.2670   57.3001   40.5969 da         1 CLA      0.174300
    114 HHC        74.5569   60.9522   43.6831 da         1 CLA      0.136800
    115 HHB        78.4755   60.4637   38.8986 da         1 CLA      0.138300
    116 HBD        74.2042   56.2854   34.6241 dc         1 CLA      0.107700
    117 HAB        77.1392   63.3194   43.4337 da         1 CLA      0.155200
    118 H93        85.7169   56.6725   37.6812 dc         1 CLA      0.069500
    119 H92        84.4176   57.7429   36.9556 dc         1 CLA      0.069500
    120 H91        85.5130   58.3129   38.2554 dc         1 CLA      0.069500
    121 H8         83.0227   57.6131   38.6604 dc         1 CLA      0.029300
    122 H72        82.3552   55.2958   39.0385 dc         1 CLA      0.044400
    123 H71        84.0123   54.6938   38.8681 dc         1 CLA      0.044400
    124 H62        83.9676   55.5319   36.6986 dc         1 CLA      0.015600
    125 H61        82.3996   56.2125   36.6032 dc         1 CLA      0.015600
    126 H52        83.0563   53.3347   37.0081 dc         1 CLA      0.033200
    127 H51        82.5138   53.9270   35.4331 dc         1 CLA      0.033200
    128 H43        79.5908   52.1064   36.9698 dc         1 CLA      0.037000
    129 H42        81.4679   51.7592   37.0843 dc         1 CLA      0.037000
    130 H41        80.6051   52.4640   38.4316 dc         1 CLA      0.037000
    131 H3A        77.8517   59.8179   36.0776 dc         1 CLA      0.041100
    132 H2A        77.1563   56.9027   36.4577 dc         1 CLA      0.083100
    133 H2         79.5959   55.2577   37.2246 da         1 CLA      0.180900
    134 H18        83.2837   58.3238   48.7744 dc         1 CLA     -0.003900
    135 H13        84.7276   55.7457   43.1752 dc         1 CLA      0.019700
    136 H12        78.3457   54.2628   35.0548 dc         1 CLA      0.120400
    137 H11        79.9755   54.5084   34.2777 dc         1 CLA      0.120400
    138 C1         66.5669   61.5399   50.2401 Z1         2 LUT      0.509236
    139 C2         65.1281   61.5516   50.7411 Z2         2 LUT     -0.434695
    140 C3         64.4521   62.8795   51.0672 Z3         2 LUT      0.437453
    141 O3         64.7232   63.3509   52.4475 S1         2 LUT     -0.547129
    142 C4         64.8541   63.9745   50.0485 Z4         2 LUT     -0.468603
    143 C5         65.7132   63.5015   48.8782 Z5         2 LUT      0.279246
    144 C6         66.6177   62.4539   49.0128 Z6         2 LUT     -0.305473
    145 C7         67.1598   61.9698   47.7398 Z7         2 LUT      0.069402
    146 C8         68.0532   62.5966   46.9088 Z8         2 LUT     -0.191631
    147 C9         68.5973   62.1596   45.6730 Z9         2 LUT      0.196698
    148 C10        69.5843   62.8973   45.0617 Y1         2 LUT     -0.208611
    149 C11        70.2321   62.7799   43.7752 Y2         2 LUT      0.030784
    150 C12        71.2212   63.6752   43.4022 Y3         2 LUT     -0.220316
    151 C13        72.1247   63.6214   42.2663 Y4         2 LUT      0.215937
    152 C14        73.3426   64.3096   42.4444 Y5         2 LUT     -0.185793
    153 C15        74.4735   64.3801   41.5847 Y6         2 LUT     -0.057835
    154 C16        66.9737   60.0681   50.0569 Y7         2 LUT     -0.405615
    155 C17        67.4240   62.0205   51.4001 Y7         2 LUT     -0.405615
    156 C18        65.2630   64.1277   47.5801 Y9         2 LUT     -0.369639
    157 C19        68.0540   60.8666   45.0240 W1         2 LUT     -0.333362
    158 C20        71.9694   62.6390   41.1102 W2         2 LUT     -0.323439
    159 C21        86.0912   64.8191   35.4581 Z1         2 LUT      0.406104
    160 C22        86.6925   64.0703   34.2583 Z2         2 LUT     -0.404965
    161 C23        86.6010   64.8201   32.9498 Z3         2 LUT      0.391255
    162 O23        86.7418   63.8391   31.9068 S1         2 LUT     -0.528210
    163 C24        85.3159   65.6904   32.8349 W6         2 LUT     -0.258361
    164 C25        84.3851   65.9165   33.8275 Z5         2 LUT      0.133546
    165 C26        84.5702   65.1698   35.1741 W8         2 LUT     -0.147008
    166 C27        83.9149   66.0177   36.2997 Z7         2 LUT      0.023843
    167 C28        82.6744   65.8591   36.8355 Z8         2 LUT     -0.216987
    168 C29        82.1509   66.3250   38.1189 Z9         2 LUT      0.206524
    169 C30        80.8631   65.9146   38.3366 Y1         2 LUT     -0.215556
    170 C31        80.0182   66.0049   39.5024 Y2         2 LUT      0.025142
    171 C32        78.7635   65.4976   39.6580 Y3         2 LUT     -0.212209
    172 C33        77.8863   65.5259   40.8111 Y4         2 LUT      0.240937
    173 C34        76.6095   64.9444   40.7572 Y5         2 LUT     -0.218862
    174 C35        75.6735   64.9539   41.8193 Y6         2 LUT     -0.023547
    175 C36        87.1189   65.8655   35.7607 Y7         2 LUT     -0.393485
    176 C37        86.0991   63.7773   36.6447 Y7         2 LUT     -0.393485
    177 C38        83.1188   66.5898   33.5252 Y9         2 LUT     -0.387526
    178 C39        82.9508   67.0452   39.1728 W1         2 LUT     -0.322618
    179 C40        78.4943   66.0856   42.0627 W2         2 LUT     -0.358472
    180 H403       79.3660   65.5475   42.4290 R7         2 LUT      0.097720
    181 H402       78.8176   67.1128   41.9833 R7         2 LUT      0.097720
    182 H401       77.8005   66.0828   42.8671 R7         2 LUT      0.097720
    183 H393       83.3721   66.2921   39.8387 R4         2 LUT      0.082505
    184 H392       83.8055   67.6575   38.8042 R4         2 LUT      0.082505
    185 H391       82.4238   67.7522   39.8669 R4         2 LUT      0.082505
    186 H383       83.0932   67.0608   32.5592 R1         2 LUT      0.104030
    187 H382       82.2770   65.8726   33.4555 R1         2 LUT      0.104030
    188 H381       82.8155   67.2986   34.2654 R1         2 LUT      0.104030
    189 H373       85.5765   64.1757   37.5430 T4         2 LUT      0.089537
    190 H372       85.5733   62.8712   36.3653 T4         2 LUT      0.089537
    191 H371       87.0794   63.5768   36.8899 T4         2 LUT      0.089537
    192 H363       87.0292   66.6741   35.0239 T4         2 LUT      0.089537
    193 H362       86.9908   66.3117   36.7180 T4         2 LUT      0.089537
    194 H361       88.1806   65.5018   35.6506 T4         2 LUT      0.089537
    195 H222       87.7447   63.8714   34.3926 U2         2 LUT      0.127376
    196 H221       86.1269   63.1117   34.0894 U2         2 LUT      0.127376
    197 H203       72.8909   62.4383   40.5979 R7         2 LUT      0.087068
    198 H202       71.5737   61.7408   41.5846 R7         2 LUT      0.087068
    199 H201       71.2941   62.9257   40.3704 R7         2 LUT      0.087068
    200 H193       68.3118   59.9064   45.4785 R4         2 LUT      0.089716
    201 H192       66.9540   60.7724   45.0071 R4         2 LUT      0.089716
    202 H191       68.3633   60.7112   43.9892 R4         2 LUT      0.089716
    203 H183       66.0566   64.7711   47.1879 R1         2 LUT      0.094572
    204 H182       65.2125   63.2954   46.8289 R1         2 LUT      0.094572
    205 H181       64.3207   64.5714   47.6059 R1         2 LUT      0.094572
    206 H173       67.4474   61.4860   52.3092 T4         2 LUT      0.093752
    207 H172       68.4910   61.9921   51.1115 T4         2 LUT      0.093752
    208 H171       67.1484   63.0254   51.7768 T4         2 LUT      0.093752
    209 H163       66.9167   59.5059   50.9920 T4         2 LUT      0.093752
    210 H162       66.4126   59.5271   49.2561 T4         2 LUT      0.093752
    211 H161       67.9936   59.9206   49.6130 T4         2 LUT      0.093752
    212 HO3        64.3471   62.7444   53.0791 Q1         2 LUT      0.300121
    213 H8         68.4104   63.5366   47.1866 U7         2 LUT      0.080784
    214 H7         66.9345   60.9348   47.4951 U6         2 LUT      0.042190
    215 H42        63.9865   64.4853   49.5996 U5         2 LUT      0.145166
    216 H41        65.4068   64.7084   50.6106 U5         2 LUT      0.145166
    217 H35        75.9325   65.3928   42.7642 T3         2 LUT      0.077919
    218 H34        76.1927   64.5486   39.7973 T2         2 LUT      0.073626
    219 H32        78.4592   64.9048   38.8559 T1         2 LUT      0.092510
    220 H31        80.4544   66.3707   40.3729 U9         2 LUT      0.070048
    221 H30        80.3409   65.2427   37.6104 U8         2 LUT      0.085442
    222 H3         63.3968   62.7845   50.8848 U3         2 LUT     -0.031596
    223 H28        82.0345   65.1979   36.2920 U7         2 LUT      0.084728
    224 H27        84.5951   66.5804   36.8339 U6         2 LUT      0.087291
    225 H26        83.9641   64.2469   35.1067 Q6         2 LUT      0.075325
    226 H24        85.1250   66.2001   31.8463 Q5         2 LUT      0.094482
    227 H23        87.4284   65.5743   32.9024 U3         2 LUT     -0.024869
    228 H22        64.4358   61.1679   49.9766 U2         2 LUT      0.127376
    229 H21        65.0763   60.8504   51.5632 U2         2 LUT      0.127376
    230 H15        74.2834   64.0361   40.4980 T3         2 LUT      0.093200
    231 H14        73.5927   64.7945   43.3058 T2         2 LUT      0.068865
    232 H12        71.4698   64.3815   44.1247 T1         2 LUT      0.095507
    233 H11        70.0223   61.9595   43.1789 U9         2 LUT      0.068930
    234 H10        69.9009   63.7477   45.7048 U8         2 LUT      0.083911
    235 H1         87.3189   64.1696   31.2006 Q1         2 LUT      0.297311
@<TRIPOS>BOND
    1     6     1 1
    2     7     2 1
    3     8     3 1
    4     9     4 1
    5    11     4 1
    6    12     6 1
    7    13     9 1
    8    16     9 1
    9    25     5 1
   10    25    16 1
   11    26    10 1
   12    26    17 1
   13    27    18 1
   14    28    14 1
   15    28    19 1
   16    29    12 1
   17    30    13 1
   18    31    24 1
   19    32     1 1
   20    32    25 1
   21    33    21 1
   22    33    26 1
   23    34    22 1
   24    34    27 1
   25    35    23 1
   26    35    28 1
   27    36    12 1
   28    36    24 1
   29    37    13 1
   30    37    15 1
   31    38    31 1
   32    39    20 1
   33    39    32 1
   34    40     2 1
   35    40    33 1
   36    41     3 1
   37    41    34 1
   38    42     4 1
   39    42    35 1
   40    43    38 1
   41    44     5 1
   42    44    17 1
   43    44    39 1
   44    45    10 1
   45    45    18 1
   46    45    40 1
   47    46    19 1
   48    46    41 1
   49    47    14 1
   50    47    16 1
   51    47    42 1
   52    48    38 1
   53    49    48 1
   54    50    49 1
   55    51    50 1
   56    52    51 1
   57    53    51 1
   58    54    53 1
   59    55    54 1
   60    56    55 1
   61    57    56 1
   62    58    56 1
   63    59    58 1
   64    60    59 1
   65    61    60 1
   66    62    61 1
   67    63    61 1
   68    64    27 1
   69    64    46 1
   70    65     5 1
   71    65    10 1
   72    65    64 1
   73    65    14 1
   74    66    23 1
   75    67    23 1
   76    68    23 1
   77    69    22 1
   78    70    22 1
   79    71    22 1
   80    72    21 1
   81    73    21 1
   82    74    21 1
   83    75    20 1
   84    76    20 1
   85    77    20 1
   86    78    15 1
   87    79    15 1
   88    80    15 1
   89    81     8 1
   90    82     8 1
   91    83     8 1
   92    84     7 1
   93    85     7 1
   94    86     6 1
   95    87     6 1
   96    88     3 1
   97    89     3 1
   98    90     1 1
   99    91     1 1
  100    92    63 1
  101    93    63 1
  102    94    63 1
  103    95    62 1
  104    96    62 1
  105    97    62 1
  106    98    60 1
  107    99    60 1
  108   100    59 1
  109   101    59 1
  110   102    58 1
  111   103    58 1
  112   104    57 1
  113   105    57 1
  114   106    57 1
  115   107    55 1
  116   108    55 1
  117   109    54 1
  118   110    54 1
  119   111    53 1
  120   112    53 1
  121   113    19 1
  122   114    18 1
  123   115    17 1
  124   116     9 1
  125   117     2 1
  126   118    52 1
  127   119    52 1
  128   120    52 1
  129   121    51 1
  130   122    50 1
  131   123    50 1
  132   124    49 1
  133   125    49 1
  134   126    48 1
  135   127    48 1
  136   128    43 1
  137   129    43 1
  138   130    43 1
  139   131    39 1
  140   132    32 1
  141   133    31 1
  142   134    61 1
  143   135    56 1
  144   136    24 1
  145   137    24 1
  146   139   138 1
  147   140   139 1
  148   141   140 1
  149   142   140 1
  150   143   142 1
  151   144   138 1
  152   144   143 1
  153   145   144 1
  154   146   145 1
  155   147   146 1
  156   148   147 1
  157   149   148 1
  158   150   149 1
  159   151   150 1
  160   152   151 1
  161   153   152 1
  162   154   138 1
  163   155   138 1
  164   156   143 1
  165   157   147 1
  166   158   151 1
  167   160   159 1
  168   161   160 1
  169   162   161 1
  170   163   161 1
  171   164   163 1
  172   165   159 1
  173   165   164 1
  174   166   165 1
  175   167   166 1
  176   168   167 1
  177   169   168 1
  178   170   169 1
  179   171   170 1
  180   172   171 1
  181   173   172 1
  182   174   153 1
  183   174   173 1
  184   175   159 1
  185   176   159 1
  186   177   164 1
  187   178   168 1
  188   179   172 1
  189   180   179 1
  190   181   179 1
  191   182   179 1
  192   183   178 1
  193   184   178 1
  194   185   178 1
  195   186   177 1
  196   187   177 1
  197   188   177 1
  198   189   176 1
  199   190   176 1
  200   191   176 1
  201   192   175 1
  202   193   175 1
  203   194   175 1
  204   195   160 1
  205   196   160 1
  206   197   158 1
  207   198   158 1
  208   199   158 1
  209   200   157 1
  210   201   157 1
  211   202   157 1
  212   203   156 1
  213   204   156 1
  214   205   156 1
  215   206   155 1
  216   207   155 1
  217   208   155 1
  218   209   154 1
  219   210   154 1
  220   211   154 1
  221   212   141 1
  222   213   146 1
  223   214   145 1
  224   215   142 1
  225   216   142 1
  226   217   174 1
  227   218   173 1
  228   219   171 1
  229   220   170 1
  230   221   169 1
  231   222   140 1
  232   223   167 1
  233   224   166 1
  234   225   165 1
  235   226   163 1
  236   227   161 1
  237   228   139 1
  238   229   139 1
  239   230   153 1
  240   231   152 1
  241   232   150 1
  242   233   149 1
  243   234   148 1
  244   235   162 1
  245   65    153 1
  246   65    174 1
@<TRIPOS>SUBSTRUCTURE
      1 CLA               1 ****               0 ****  **** 
      2 LUT             138 ****               0 ****  **** 
