@<TRIPOS>MOLECULE
Cpptraj generated mol2 file.
  235   246     2     0     0
SMALL
USER_CHARGES


@<TRIPOS>ATOM
      1 CAA        79.1422   58.8743   33.8736 a2         1 CLA     -0.055900
      2 CAB        78.8934   62.5214   42.8876 c8         1 CLA     -0.148500
      3 CAC        72.2706   57.8961   42.1265 a2         1 CLA     -0.012600
      4 CAD        74.9632   56.1191   34.8632 ck         1 CLA      0.398800
      5 NA         78.0349   59.0390   37.2347 ns         1 CLA     -0.225500
      6 CBA        80.4658   58.7122   32.9800 a2         1 CLA     -0.135000
      7 CBB        79.9443   62.3475   43.7450 c0         1 CLA     -0.395200
      8 CBC        72.4375   56.4240   42.0436 a3         1 CLA     -0.037700
      9 CBD        76.5023   56.6519   34.6468 a1         1 CLA     -0.053900
     10 NB         77.8765   60.5021   39.8645 nm         1 CLA     -0.295700
     11 OBD        74.3658   55.4168   34.0854 o2         1 CLA     -0.494600
     12 CGA        80.8526   57.2582   32.5526 c4         1 CLA      0.827000
     13 CGD        77.4526   55.5418   34.3094 c4         1 CLA      0.655300
     14 ND         75.2500   58.1086   37.6937 nm         1 CLA     -0.291600
     15 CED        78.2335   53.3169   34.4810 a3         1 CLA      0.005400
     16 CHA        76.8274   57.5273   35.8257 cs         1 CLA     -0.123800
     17 CHB        79.8232   60.3219   38.3878 aa         1 CLA     -0.291900
     18 CHC        76.4018   60.9171   41.7702 aa         1 CLA     -0.090400
     19 CHD        73.4441   57.8856   39.2607 aa         1 CLA     -0.052000
     20 CMA        81.4524   58.2312   36.6532 a3         1 CLA     -0.230700
     21 CMB        81.2103   62.0832   40.5460 a3         1 CLA     -0.180800
     22 CMC        74.0201   60.2463   43.6976 a3         1 CLA     -0.134000
     23 CMD        72.2853   56.0256   36.9051 a3         1 CLA     -0.141100
     24 C1         81.6945   55.1223   33.2181 a2         1 CLA      0.023000
     25 C1A        77.9718   58.2051   36.1382 ac         1 CLA     -0.015100
     26 C1B        79.2006   60.8574   39.5187 cr         1 CLA      0.054700
     27 C1C        75.3061   60.0679   41.4620 cn         1 CLA     -0.005600
     28 C1D        74.0018   57.5931   38.0001 ap         1 CLA     -0.047300
     29 O1A        80.6263   56.7880   31.4147 o2         1 CLA     -0.610800
     30 O1D        78.3519   55.7991   33.5309 o2         1 CLA     -0.558200
     31 C2         82.4324   54.6171   34.4502 c8         1 CLA     -0.325100
     32 C2A        79.2339   58.2557   35.3422 a1         1 CLA      0.098600
     33 C2B        79.7938   61.6708   40.5738 cb         1 CLA      0.088500
     34 C2C        74.1881   59.7554   42.2872 cb         1 CLA      0.053700
     35 C2D        73.5675   56.7315   36.9450 cb         1 CLA      0.058900
     36 O2A        81.5087   56.5230   33.4939 o1         1 CLA     -0.437200
     37 O2D        77.2435   54.3483   34.8820 o1         1 CLA     -0.357600
     38 C3         83.5671   53.8548   34.4265 c5         1 CLA      0.031200
     39 C3A        80.2318   59.1075   36.2335 a1         1 CLA      0.166800
     40 C3B        78.7906   61.8355   41.5937 cb         1 CLA      0.035000
     41 C3C        73.4384   58.7759   41.5860 cb         1 CLA     -0.089900
     42 C3D        74.6345   56.6598   36.0687 cb         1 CLA     -0.035900
     43 C4         83.5226   52.4354   34.8004 a3         1 CLA     -0.053300
     44 C4A        79.2778   59.5353   37.3795 ac         1 CLA      0.001800
     45 C4B        77.6006   61.1217   41.0749 cn         1 CLA     -0.020900
     46 C4C        74.0767   58.5292   40.3479 cr         1 CLA     -0.044400
     47 C4D        75.6234   57.4776   36.5749 c6         1 CLA     -0.046000
     48 C5         84.9086   54.4850   34.0305 a2         1 CLA     -0.070400
     49 C6         85.3823   55.7336   34.7449 a2         1 CLA      0.043900
     50 C7         85.6906   55.4082   36.2673 a2         1 CLA     -0.150000
     51 C8         85.8202   56.6610   37.1520 a1         1 CLA      0.064200
     52 C9         87.0617   57.5554   36.6988 a3         1 CLA     -0.259300
     53 C10        86.0977   56.1214   38.6304 a2         1 CLA     -0.071900
     54 C11        86.2968   57.1318   39.6397 a2         1 CLA      0.014500
     55 C12        86.3102   56.5474   41.1147 a2         1 CLA     -0.112100
     56 C13        85.9662   57.5781   42.1845 a1         1 CLA      0.089200
     57 C14        87.1763   58.5155   42.1705 a3         1 CLA     -0.239100
     58 C15        85.7411   57.0862   43.5948 a2         1 CLA     -0.102200
     59 C16        85.2254   58.0100   44.6761 a2         1 CLA      0.023900
     60 C17        84.9978   57.3370   46.0684 a2         1 CLA     -0.105700
     61 C18        84.3974   58.2520   47.2406 a1         1 CLA      0.206800
     62 C19        83.1406   59.1271   46.8239 a3         1 CLA     -0.280100
     63 C20        84.0715   57.3600   48.4547 a3         1 CLA     -0.280100
     64 NC         75.2490   59.2915   40.3823 nx         1 CLA     -0.309200
     65 MG         76.5634   59.3956   38.6525 mg         1 CLA      0.895000
     66 HMD3       72.1810   55.3615   36.1000 dc         1 CLA      0.064300
     67 HMD2       72.0304   55.5046   37.8841 dc         1 CLA      0.064300
     68 HMD1       71.4132   56.6717   36.7449 dc         1 CLA      0.064300
     69 HMC3       74.5485   59.5791   44.3303 dc         1 CLA      0.052100
     70 HMC2       74.3783   61.2725   43.7178 dc         1 CLA      0.052100
     71 HMC1       72.9567   60.1913   43.9510 dc         1 CLA      0.052100
     72 HMB3       81.4759   62.4316   39.5693 dc         1 CLA      0.063600
     73 HMB2       81.2413   62.8708   41.2814 dc         1 CLA      0.063600
     74 HMB1       81.9155   61.2929   40.8482 dc         1 CLA      0.063600
     75 HMA3       82.1590   58.8370   37.2907 dc         1 CLA      0.058300
     76 HMA2       81.1667   57.4384   37.3481 dc         1 CLA      0.058300
     77 HMA1       82.0838   58.0257   35.7068 dc         1 CLA      0.058300
     78 HED3       79.2788   53.6447   34.6666 dc         1 CLA      0.079300
     79 HED2       77.9627   52.3770   35.0358 dc         1 CLA      0.079300
     80 HED1       78.0649   53.1246   33.3839 dc         1 CLA      0.079300
     81 HBC3       71.8262   55.9309   41.2388 dc         1 CLA      0.016300
     82 HBC2       73.4461   56.0835   41.9245 dc         1 CLA      0.016300
     83 HBC1       72.0756   56.0139   42.9604 dc         1 CLA      0.016300
     84 HBB2       79.9772   62.7938   44.6921 da         1 CLA      0.183000
     85 HBB1       80.8155   61.8312   43.3459 da         1 CLA      0.183000
     86 HBA2       80.2599   59.2113   32.0703 dc         1 CLA      0.029400
     87 HBA1       81.2651   59.1916   33.4875 dc         1 CLA      0.029400
     88 HAC2       72.2103   58.0513   43.2355 dc         1 CLA      0.029300
     89 HAC1       71.3230   58.2792   41.7752 dc         1 CLA      0.029300
     90 HAA2       78.1988   58.5936   33.3592 dc         1 CLA      0.028700
     91 HAA1       79.0566   59.9499   33.9908 dc         1 CLA      0.028700
     92 H203       84.8756   56.7080   48.7046 dc         1 CLA      0.065600
     93 H202       83.7793   57.9800   49.2801 dc         1 CLA      0.065600
     94 H201       83.2698   56.6676   48.1482 dc         1 CLA      0.065600
     95 H193       82.6246   59.4889   47.6900 dc         1 CLA      0.065600
     96 H192       83.4295   59.8972   46.1350 dc         1 CLA      0.065600
     97 H191       82.5502   58.2777   46.3365 dc         1 CLA      0.065600
     98 H172       84.4324   56.4725   45.9124 dc         1 CLA      0.027600
     99 H171       85.9811   57.0896   46.5101 dc         1 CLA      0.027600
    100 H162       85.9042   58.8023   44.8596 dc         1 CLA      0.002900
    101 H161       84.3040   58.5376   44.3652 dc         1 CLA      0.002900
    102 H152       85.0983   56.2081   43.5408 dc         1 CLA      0.029100
    103 H151       86.6703   56.7092   43.8859 dc         1 CLA      0.029100
    104 H143       87.2378   59.1907   41.3325 dc         1 CLA      0.063600
    105 H142       87.1509   59.0517   43.0483 dc         1 CLA      0.063600
    106 H141       88.1394   57.9720   42.1283 dc         1 CLA      0.063600
    107 H122       85.5857   55.6923   41.1091 dc         1 CLA      0.032500
    108 H121       87.3514   56.1941   41.2693 dc         1 CLA      0.032500
    109 H112       87.0508   57.8145   39.4333 dc         1 CLA      0.006600
    110 H111       85.3437   57.7732   39.6427 dc         1 CLA      0.006600
    111 H102       85.2332   55.5603   38.8793 dc         1 CLA      0.024100
    112 H101       86.8898   55.4641   38.5986 dc         1 CLA      0.024100
    113 HHD        72.4478   57.5053   39.4507 da         1 CLA      0.174300
    114 HHC        76.3583   61.4093   42.7629 da         1 CLA      0.136800
    115 HHB        80.8594   60.6470   38.3756 da         1 CLA      0.138300
    116 HBD        76.3743   57.3074   33.7929 dc         1 CLA      0.107700
    117 HAB        78.0415   63.0521   43.2633 da         1 CLA      0.155200
    118 H93        87.0907   58.5186   37.1862 dc         1 CLA      0.069500
    119 H92        88.0554   57.1354   36.8685 dc         1 CLA      0.069500
    120 H91        86.9677   57.6929   35.6499 dc         1 CLA      0.069500
    121 H8         84.9159   57.2627   37.1782 dc         1 CLA      0.029300
    122 H72        84.7754   54.9188   36.6951 dc         1 CLA      0.044400
    123 H71        86.5633   54.7885   36.2962 dc         1 CLA      0.044400
    124 H62        86.3259   56.0406   34.2119 dc         1 CLA      0.015600
    125 H61        84.7503   56.5863   34.7114 dc         1 CLA      0.015600
    126 H52        85.6903   53.7340   34.0881 dc         1 CLA      0.033200
    127 H51        84.9375   54.6748   32.9489 dc         1 CLA      0.033200
    128 H43        82.5049   52.2150   35.0531 dc         1 CLA      0.037000
    129 H42        83.8438   51.6666   34.0496 dc         1 CLA      0.037000
    130 H41        84.0597   52.4503   35.7213 dc         1 CLA      0.037000
    131 H3A        80.6875   59.9888   35.8104 dc         1 CLA      0.041100
    132 H2A        79.5123   57.2375   35.1531 dc         1 CLA      0.083100
    133 H2         82.1948   55.0700   35.4734 da         1 CLA      0.180900
    134 H18        85.1394   59.0597   47.5145 dc         1 CLA     -0.003900
    135 H13        85.1219   58.1583   41.8490 dc         1 CLA      0.019700
    136 H12        80.7606   54.5986   33.1126 dc         1 CLA      0.120400
    137 H11        82.3161   54.9792   32.3971 dc         1 CLA      0.120400
    138 C1         68.7996   61.8403   49.1038 Z1         2 LUT      0.509236
    139 C2         67.3009   61.6114   49.5288 Z2         2 LUT     -0.434695
    140 C3         66.5568   62.9232   49.8154 Z3         2 LUT      0.437453
    141 O3         66.4678   63.0776   51.2217 S1         2 LUT     -0.547129
    142 C4         67.0548   64.1524   49.1134 Z4         2 LUT     -0.468603
    143 C5         67.8840   63.8232   47.8839 Z5         2 LUT      0.279246
    144 C6         68.8377   62.8572   47.9164 Z6         2 LUT     -0.305473
    145 C7         69.4914   62.5048   46.6961 Z7         2 LUT      0.069402
    146 C8         70.3859   63.1592   45.8511 Z8         2 LUT     -0.191631
    147 C9         70.8472   62.7731   44.4969 Z9         2 LUT      0.196698
    148 C10        71.9549   63.4185   43.9932 Y1         2 LUT     -0.208611
    149 C11        72.4671   63.3719   42.6914 Y2         2 LUT      0.030784
    150 C12        73.8010   63.7430   42.5574 Y3         2 LUT     -0.220316
    151 C13        74.6883   63.7160   41.3331 Y4         2 LUT      0.215937
    152 C14        75.9611   64.1716   41.4451 Y5         2 LUT     -0.185793
    153 C15        76.9085   64.3580   40.4621 Y6         2 LUT     -0.057835
    154 C16        69.4376   60.5025   48.7628 Y7         2 LUT     -0.405615
    155 C17        69.5874   62.3916   50.2855 Y7         2 LUT     -0.405615
    156 C18        67.5717   64.6166   46.6846 Y9         2 LUT     -0.369639
    157 C19        70.0777   61.8331   43.6242 W1         2 LUT     -0.333362
    158 C20        74.0389   63.2813   40.0013 W2         2 LUT     -0.323439
    159 C21        87.9284   66.2595   34.3962 Z1         2 LUT      0.406104
    160 C22        88.6511   65.6310   33.1487 Z2         2 LUT     -0.404965
    161 C23        88.8640   66.4772   31.9943 Z3         2 LUT      0.391255
    162 O23        89.6182   65.6804   31.0728 S1         2 LUT     -0.528210
    163 C24        87.5948   67.2830   31.6453 W6         2 LUT     -0.258361
    164 C25        86.5005   67.4520   32.3900 Z5         2 LUT      0.133546
    165 C26        86.4678   66.6706   33.7440 W8         2 LUT     -0.147008
    166 C27        85.6036   67.4350   34.6974 Z7         2 LUT      0.023843
    167 C28        84.5513   66.8870   35.4162 Z8         2 LUT     -0.216987
    168 C29        83.8906   67.2901   36.5913 Z9         2 LUT      0.206524
    169 C30        82.9325   66.5171   37.2129 Y1         2 LUT     -0.215556
    170 C31        82.2347   66.6432   38.4365 Y2         2 LUT      0.025142
    171 C32        81.1421   65.9075   38.6580 Y3         2 LUT     -0.212209
    172 C33        80.1950   66.0907   39.7097 Y4         2 LUT      0.240937
    173 C34        79.0770   65.2892   39.6751 Y5         2 LUT     -0.218862
    174 C35        77.9881   65.1469   40.6169 Y6         2 LUT     -0.023547
    175 C36        88.8533   67.4221   34.9474 Y7         2 LUT     -0.393485
    176 C37        87.8943   65.0667   35.4412 Y7         2 LUT     -0.393485
    177 C38        85.2290   68.0507   31.9544 Y9         2 LUT     -0.387526
    178 C39        84.4584   68.4797   37.2659 W1         2 LUT     -0.322618
    179 C40        80.4338   66.8831   40.9899 W2         2 LUT     -0.358472
    180 H403       79.6044   67.5734   41.1937 R7         2 LUT      0.097720
    181 H402       80.5698   66.2580   41.8781 R7         2 LUT      0.097720
    182 H401       81.2471   67.6166   40.9026 R7         2 LUT      0.097720
    183 H393       84.6977   69.2516   36.4440 R4         2 LUT      0.082505
    184 H392       83.6961   68.9481   37.9337 R4         2 LUT      0.082505
    185 H391       85.3708   68.3420   37.8970 R4         2 LUT      0.082505
    186 H383       84.2898   67.4770   32.1194 R1         2 LUT      0.104030
    187 H382       85.1752   69.0138   32.4973 R1         2 LUT      0.104030
    188 H381       85.2557   68.2603   30.9062 R1         2 LUT      0.104030
    189 H373       87.3437   64.1945   34.9841 T4         2 LUT      0.089537
    190 H372       88.9101   64.8309   35.6946 T4         2 LUT      0.089537
    191 H371       87.5121   65.3766   36.3947 T4         2 LUT      0.089537
    192 H363       88.7868   68.3606   34.4031 T4         2 LUT      0.089537
    193 H362       88.3891   67.6545   35.8845 T4         2 LUT      0.089537
    194 H361       89.8859   67.0449   35.0873 T4         2 LUT      0.089537
    195 H222       89.5846   65.2000   33.4255 U2         2 LUT      0.127376
    196 H221       88.1044   64.6937   32.8972 U2         2 LUT      0.127376
    197 H203       74.5292   63.9058   39.2771 R7         2 LUT      0.087068
    198 H202       74.2495   62.2541   39.7818 R7         2 LUT      0.087068
    199 H201       73.0461   63.4374   39.9786 R7         2 LUT      0.087068
    200 H193       69.2789   61.3864   44.0187 R4         2 LUT      0.089716
    201 H192       69.7014   62.2945   42.6894 R4         2 LUT      0.089716
    202 H191       70.7432   61.0241   43.2655 R4         2 LUT      0.089716
    203 H183       66.6221   65.2137   46.6450 R1         2 LUT      0.094572
    204 H182       68.3112   65.5086   46.6512 R1         2 LUT      0.094572
    205 H181       67.6031   64.0410   45.7315 R1         2 LUT      0.094572
    206 H173       69.1464   63.2954   50.6787 T4         2 LUT      0.093752
    207 H172       69.6985   61.7443   51.1620 T4         2 LUT      0.093752
    208 H171       70.6174   62.7925   50.0575 T4         2 LUT      0.093752
    209 H163       68.9151   60.0543   47.8992 T4         2 LUT      0.093752
    210 H162       70.4957   60.5631   48.4605 T4         2 LUT      0.093752
    211 H161       69.2737   59.7890   49.4989 T4         2 LUT      0.093752
    212 HO3        65.6710   62.6348   51.6206 Q1         2 LUT      0.300121
    213 H8         70.7366   64.1347   46.0665 U7         2 LUT      0.080784
    214 H7         69.1834   61.5773   46.2703 U6         2 LUT      0.042190
    215 H42        66.2417   64.7653   48.8384 U5         2 LUT      0.145166
    216 H41        67.4809   64.8149   49.9155 U5         2 LUT      0.145166
    217 H35        77.9939   65.6733   41.6115 T3         2 LUT      0.077919
    218 H34        78.9354   64.6714   38.8329 T2         2 LUT      0.073626
    219 H32        80.8651   65.2255   37.8873 T1         2 LUT      0.092510
    220 H31        82.4154   67.4503   39.1286 U9         2 LUT      0.070048
    221 H30        82.6191   65.6524   36.5714 U8         2 LUT      0.085442
    222 H3         65.5212   62.8687   49.3366 U3         2 LUT     -0.031596
    223 H28        84.0992   65.9726   34.9613 U7         2 LUT      0.084728
    224 H27        86.0089   68.4359   34.8812 U6         2 LUT      0.087291
    225 H26        85.9874   65.6859   33.4748 Q6         2 LUT      0.075325
    226 H24        87.5378   67.6129   30.6080 Q5         2 LUT      0.094482
    227 H23        89.5053   67.2524   32.4644 U3         2 LUT     -0.024869
    228 H22        66.8397   61.2042   48.5726 U2         2 LUT      0.127376
    229 H21        67.1345   60.9645   50.4251 U2         2 LUT      0.127376
    230 H15        76.8433   63.8334   39.5096 T3         2 LUT      0.093200
    231 H14        76.2519   64.5689   42.3764 T2         2 LUT      0.068865
    232 H12        74.2203   64.0606   43.4608 T1         2 LUT      0.095507
    233 H11        71.9120   62.9597   41.8450 U9         2 LUT      0.068930
    234 H10        72.3854   64.2222   44.5769 U8         2 LUT      0.083911
    235 H1         89.0393   65.3500   30.4112 Q1         2 LUT      0.297311
@<TRIPOS>BOND
    1     6     1 1
    2     7     2 1
    3     8     3 1
    4     9     4 1
    5    11     4 1
    6    12     6 1
    7    13     9 1
    8    16     9 1
    9    25     5 1
   10    25    16 1
   11    26    10 1
   12    26    17 1
   13    27    18 1
   14    28    14 1
   15    28    19 1
   16    29    12 1
   17    30    13 1
   18    31    24 1
   19    32     1 1
   20    32    25 1
   21    33    21 1
   22    33    26 1
   23    34    22 1
   24    34    27 1
   25    35    23 1
   26    35    28 1
   27    36    12 1
   28    36    24 1
   29    37    13 1
   30    37    15 1
   31    38    31 1
   32    39    20 1
   33    39    32 1
   34    40     2 1
   35    40    33 1
   36    41     3 1
   37    41    34 1
   38    42     4 1
   39    42    35 1
   40    43    38 1
   41    44     5 1
   42    44    17 1
   43    44    39 1
   44    45    10 1
   45    45    18 1
   46    45    40 1
   47    46    19 1
   48    46    41 1
   49    47    14 1
   50    47    16 1
   51    47    42 1
   52    48    38 1
   53    49    48 1
   54    50    49 1
   55    51    50 1
   56    52    51 1
   57    53    51 1
   58    54    53 1
   59    55    54 1
   60    56    55 1
   61    57    56 1
   62    58    56 1
   63    59    58 1
   64    60    59 1
   65    61    60 1
   66    62    61 1
   67    63    61 1
   68    64    27 1
   69    64    46 1
   70    65     5 1
   71    65    10 1
   72    65    64 1
   73    65    14 1
   74    66    23 1
   75    67    23 1
   76    68    23 1
   77    69    22 1
   78    70    22 1
   79    71    22 1
   80    72    21 1
   81    73    21 1
   82    74    21 1
   83    75    20 1
   84    76    20 1
   85    77    20 1
   86    78    15 1
   87    79    15 1
   88    80    15 1
   89    81     8 1
   90    82     8 1
   91    83     8 1
   92    84     7 1
   93    85     7 1
   94    86     6 1
   95    87     6 1
   96    88     3 1
   97    89     3 1
   98    90     1 1
   99    91     1 1
  100    92    63 1
  101    93    63 1
  102    94    63 1
  103    95    62 1
  104    96    62 1
  105    97    62 1
  106    98    60 1
  107    99    60 1
  108   100    59 1
  109   101    59 1
  110   102    58 1
  111   103    58 1
  112   104    57 1
  113   105    57 1
  114   106    57 1
  115   107    55 1
  116   108    55 1
  117   109    54 1
  118   110    54 1
  119   111    53 1
  120   112    53 1
  121   113    19 1
  122   114    18 1
  123   115    17 1
  124   116     9 1
  125   117     2 1
  126   118    52 1
  127   119    52 1
  128   120    52 1
  129   121    51 1
  130   122    50 1
  131   123    50 1
  132   124    49 1
  133   125    49 1
  134   126    48 1
  135   127    48 1
  136   128    43 1
  137   129    43 1
  138   130    43 1
  139   131    39 1
  140   132    32 1
  141   133    31 1
  142   134    61 1
  143   135    56 1
  144   136    24 1
  145   137    24 1
  146   139   138 1
  147   140   139 1
  148   141   140 1
  149   142   140 1
  150   143   142 1
  151   144   138 1
  152   144   143 1
  153   145   144 1
  154   146   145 1
  155   147   146 1
  156   148   147 1
  157   149   148 1
  158   150   149 1
  159   151   150 1
  160   152   151 1
  161   153   152 1
  162   154   138 1
  163   155   138 1
  164   156   143 1
  165   157   147 1
  166   158   151 1
  167   160   159 1
  168   161   160 1
  169   162   161 1
  170   163   161 1
  171   164   163 1
  172   165   159 1
  173   165   164 1
  174   166   165 1
  175   167   166 1
  176   168   167 1
  177   169   168 1
  178   170   169 1
  179   171   170 1
  180   172   171 1
  181   173   172 1
  182   174   153 1
  183   174   173 1
  184   175   159 1
  185   176   159 1
  186   177   164 1
  187   178   168 1
  188   179   172 1
  189   180   179 1
  190   181   179 1
  191   182   179 1
  192   183   178 1
  193   184   178 1
  194   185   178 1
  195   186   177 1
  196   187   177 1
  197   188   177 1
  198   189   176 1
  199   190   176 1
  200   191   176 1
  201   192   175 1
  202   193   175 1
  203   194   175 1
  204   195   160 1
  205   196   160 1
  206   197   158 1
  207   198   158 1
  208   199   158 1
  209   200   157 1
  210   201   157 1
  211   202   157 1
  212   203   156 1
  213   204   156 1
  214   205   156 1
  215   206   155 1
  216   207   155 1
  217   208   155 1
  218   209   154 1
  219   210   154 1
  220   211   154 1
  221   212   141 1
  222   213   146 1
  223   214   145 1
  224   215   142 1
  225   216   142 1
  226   217   174 1
  227   218   173 1
  228   219   171 1
  229   220   170 1
  230   221   169 1
  231   222   140 1
  232   223   167 1
  233   224   166 1
  234   225   165 1
  235   226   163 1
  236   227   161 1
  237   228   139 1
  238   229   139 1
  239   230   153 1
  240   231   152 1
  241   232   150 1
  242   233   149 1
  243   234   148 1
  244   235   162 1
  245   65    153 1
  246   65    174 1
@<TRIPOS>SUBSTRUCTURE
      1 CLA               1 ****               0 ****  **** 
      2 LUT             138 ****               0 ****  **** 
