@<TRIPOS>MOLECULE
Cpptraj generated mol2 file.
  235   246     2     0     0
SMALL
USER_CHARGES


@<TRIPOS>ATOM
      1 CAA        79.2716   57.3720   34.4828 a2         1 CLA     -0.055900
      2 CAB        79.5307   61.8766   43.2540 c8         1 CLA     -0.148500
      3 CAC        72.9730   57.4793   43.4313 a2         1 CLA     -0.012600
      4 CAD        75.1138   54.9588   36.0321 ck         1 CLA      0.398800
      5 NA         78.2742   58.0795   37.8362 ns         1 CLA     -0.225500
      6 CBA        80.4721   57.0306   33.6602 a2         1 CLA     -0.135000
      7 CBB        80.6438   62.2234   43.8941 c0         1 CLA     -0.395200
      8 CBC        73.2954   56.0353   43.6121 a3         1 CLA     -0.037700
      9 CBD        76.6320   55.4075   35.6794 a1         1 CLA     -0.053900
     10 NB         78.3517   59.7485   40.3456 nm         1 CLA     -0.295700
     11 OBD        74.5201   54.1203   35.4212 o2         1 CLA     -0.494600
     12 CGA        80.9953   55.6832   33.1901 c4         1 CLA      0.827000
     13 CGD        77.5378   54.2852   35.7776 c4         1 CLA      0.655300
     14 ND         75.5232   57.2887   38.6246 nm         1 CLA     -0.291600
     15 CED        77.9575   52.0749   36.8744 a3         1 CLA      0.005400
     16 CHA        76.9552   56.4377   36.7399 cs         1 CLA     -0.123800
     17 CHB        80.1128   59.4830   38.6080 aa         1 CLA     -0.291900
     18 CHC        77.1158   60.1209   42.4102 aa         1 CLA     -0.090400
     19 CHD        73.7570   57.2027   40.3893 aa         1 CLA     -0.052000
     20 CMA        81.6052   57.2018   37.2071 a3         1 CLA     -0.230700
     21 CMB        81.6530   61.5305   40.5261 a3         1 CLA     -0.180800
     22 CMC        75.1785   59.4597   44.8369 a3         1 CLA     -0.134000
     23 CMD        72.4184   55.0864   38.3728 a3         1 CLA     -0.141100
     24 C1         82.0415   53.7153   34.0111 a2         1 CLA      0.023000
     25 C1A        78.1607   57.1269   36.8793 ac         1 CLA     -0.015100
     26 C1B        79.5692   60.0989   39.8264 cr         1 CLA      0.054700
     27 C1C        75.9593   59.4158   42.2940 cn         1 CLA     -0.005600
     28 C1D        74.2355   56.8334   39.0755 ap         1 CLA     -0.047300
     29 O1A        80.7578   55.1133   32.1564 o2         1 CLA     -0.610800
     30 O1D        78.5524   54.2454   35.1200 o2         1 CLA     -0.558200
     31 C2         82.9706   53.2478   35.1514 c8         1 CLA     -0.325100
     32 C2A        79.4227   57.0014   35.9732 a1         1 CLA      0.098600
     33 C2B        80.2636   61.0163   40.8000 cb         1 CLA      0.088500
     34 C2C        75.0309   59.1037   43.3318 cb         1 CLA      0.053700
     35 C2D        73.7173   55.8680   38.1320 cb         1 CLA      0.058900
     36 O2A        81.7386   55.0689   34.1755 o1         1 CLA     -0.437200
     37 O2D        77.2134   53.3847   36.7909 o1         1 CLA     -0.357600
     38 C3         84.2621   52.8912   35.0042 c5         1 CLA      0.031200
     39 C3A        80.3858   58.0065   36.6188 a1         1 CLA      0.166800
     40 C3B        79.3535   61.1657   41.9346 cb         1 CLA      0.035000
     41 C3C        74.0686   58.1776   42.6949 cb         1 CLA     -0.089900
     42 C3D        74.7412   55.7241   37.1678 cb         1 CLA     -0.035900
     43 C4         84.4879   51.5537   34.3824 a3         1 CLA     -0.053300
     44 C4A        79.5999   58.5510   37.8029 ac         1 CLA      0.001800
     45 C4B        78.2033   60.3290   41.5746 cn         1 CLA     -0.020900
     46 C4C        74.4557   58.0534   41.3306 cr         1 CLA     -0.044400
     47 C4D        75.8206   56.5491   37.5179 c6         1 CLA     -0.046000
     48 C5         85.5125   53.5974   35.5789 a2         1 CLA     -0.070400
     49 C6         86.3323   52.9053   36.7097 a2         1 CLA      0.043900
     50 C7         87.5097   53.7400   37.2122 a2         1 CLA     -0.150000
     51 C8         87.1443   54.4268   38.6177 a1         1 CLA      0.064200
     52 C9         86.1460   55.5149   38.5587 a3         1 CLA     -0.259300
     53 C10        88.4649   55.0120   39.1639 a2         1 CLA     -0.071900
     54 C11        88.4120   55.7601   40.4160 a2         1 CLA      0.014500
     55 C12        87.9460   54.8120   41.4776 a2         1 CLA     -0.112100
     56 C13        87.8002   55.4222   42.8536 a1         1 CLA      0.089200
     57 C14        87.5989   54.4570   43.9642 a3         1 CLA     -0.239100
     58 C15        86.7556   56.6228   42.9050 a2         1 CLA     -0.102200
     59 C16        86.6097   57.4202   44.2051 a2         1 CLA      0.023900
     60 C17        85.6992   58.6813   44.0886 a2         1 CLA     -0.105700
     61 C18        84.2579   58.2774   44.0153 a1         1 CLA      0.206800
     62 C19        83.7316   58.1224   45.5047 a3         1 CLA     -0.280100
     63 C20        83.4780   59.3950   43.2896 a3         1 CLA     -0.280100
     64 NC         75.5884   58.7508   41.0801 nx         1 CLA     -0.309200
     65 MG         76.8551   58.6253   39.3494 mg         1 CLA      0.895000
     66 HMD3       71.5304   55.7830   38.4039 dc         1 CLA      0.064300
     67 HMD2       72.2231   54.3290   37.6324 dc         1 CLA      0.064300
     68 HMD1       72.4231   54.5812   39.3903 dc         1 CLA      0.064300
     69 HMC3       76.1805   59.7914   45.1574 dc         1 CLA      0.052100
     70 HMC2       74.5025   60.2468   45.0205 dc         1 CLA      0.052100
     71 HMC1       74.9650   58.5871   45.4944 dc         1 CLA      0.052100
     72 HMB3       81.7898   61.8089   39.4709 dc         1 CLA      0.063600
     73 HMB2       81.8842   62.4329   41.0982 dc         1 CLA      0.063600
     74 HMB1       82.2682   60.6656   40.7222 dc         1 CLA      0.063600
     75 HMA3       82.4282   57.7603   37.6008 dc         1 CLA      0.058300
     76 HMA2       81.3724   56.3648   37.9651 dc         1 CLA      0.058300
     77 HMA1       82.2034   56.7965   36.3354 dc         1 CLA      0.058300
     78 HED3       79.0017   52.2148   37.1499 dc         1 CLA      0.079300
     79 HED2       77.5109   51.5239   37.6773 dc         1 CLA      0.079300
     80 HED1       77.7774   51.6318   35.9839 dc         1 CLA      0.079300
     81 HBC3       73.5519   55.7064   42.5992 dc         1 CLA      0.016300
     82 HBC2       74.1037   55.7873   44.3375 dc         1 CLA      0.016300
     83 HBC1       72.4037   55.5182   43.9675 dc         1 CLA      0.016300
     84 HBB2       80.5461   62.8619   44.8193 da         1 CLA      0.183000
     85 HBB1       81.6207   61.9519   43.4924 da         1 CLA      0.183000
     86 HBA2       80.3829   57.6736   32.7379 dc         1 CLA      0.029400
     87 HBA1       81.3855   57.4268   34.1151 dc         1 CLA      0.029400
     88 HAC2       72.7302   58.0180   44.3130 dc         1 CLA      0.029300
     89 HAC1       72.1334   57.5263   42.8697 dc         1 CLA      0.029300
     90 HAA2       78.4768   56.7290   34.0518 dc         1 CLA      0.028700
     91 HAA1       78.9995   58.4576   34.3747 dc         1 CLA      0.028700
     92 H203       83.2946   60.2585   43.9559 dc         1 CLA      0.065600
     93 H202       83.9578   59.7269   42.3458 dc         1 CLA      0.065600
     94 H201       82.5075   59.0448   43.0637 dc         1 CLA      0.065600
     95 H193       83.6293   59.0034   46.0866 dc         1 CLA      0.065600
     96 H192       82.7937   57.5985   45.4792 dc         1 CLA      0.065600
     97 H191       84.3692   57.4004   46.1164 dc         1 CLA      0.065600
     98 H172       85.7776   59.2768   44.9928 dc         1 CLA      0.027600
     99 H171       85.9464   59.3337   43.2192 dc         1 CLA      0.027600
    100 H162       86.2422   56.8420   45.0368 dc         1 CLA      0.002900
    101 H161       87.5700   57.6141   44.5799 dc         1 CLA      0.002900
    102 H152       87.0822   57.4157   42.2208 dc         1 CLA      0.029100
    103 H151       85.8317   56.2599   42.5347 dc         1 CLA      0.029100
    104 H143       86.5698   54.2269   44.2369 dc         1 CLA      0.063600
    105 H142       88.0292   53.5079   43.7392 dc         1 CLA      0.063600
    106 H141       88.1036   54.9383   44.7985 dc         1 CLA      0.063600
    107 H122       87.0609   54.3509   41.2900 dc         1 CLA      0.032500
    108 H121       88.7490   54.1041   41.5005 dc         1 CLA      0.032500
    109 H112       89.4213   56.0606   40.7400 dc         1 CLA      0.006600
    110 H111       87.8689   56.6954   40.2559 dc         1 CLA      0.006600
    111 H102       89.1999   54.2129   39.2278 dc         1 CLA      0.024100
    112 H101       88.9968   55.6732   38.3810 dc         1 CLA      0.024100
    113 HHD        72.8638   56.7479   40.7076 da         1 CLA      0.174300
    114 HHC        77.2629   60.5827   43.3820 da         1 CLA      0.136800
    115 HHB        81.0743   59.8753   38.3297 da         1 CLA      0.138300
    116 HBD        76.6461   55.8567   34.7064 dc         1 CLA      0.107700
    117 HAB        78.6484   62.1827   43.7239 da         1 CLA      0.155200
    118 H93        86.6869   56.3506   38.0522 dc         1 CLA      0.069500
    119 H92        85.2916   55.3018   37.9278 dc         1 CLA      0.069500
    120 H91        85.8876   55.7752   39.6134 dc         1 CLA      0.069500
    121 H8         86.8041   53.7110   39.3329 dc         1 CLA      0.029300
    122 H72        88.3810   52.9898   37.3586 dc         1 CLA      0.044400
    123 H71        87.8888   54.4180   36.4593 dc         1 CLA      0.044400
    124 H62        85.5623   52.8715   37.4860 dc         1 CLA      0.015600
    125 H61        86.7990   51.8766   36.5127 dc         1 CLA      0.015600
    126 H52        86.2007   53.9165   34.7316 dc         1 CLA      0.033200
    127 H51        85.0836   54.5291   35.9757 dc         1 CLA      0.033200
    128 H43        85.2630   50.9636   34.9616 dc         1 CLA      0.037000
    129 H42        83.5711   51.0153   34.3595 dc         1 CLA      0.037000
    130 H41        84.7585   51.7246   33.3849 dc         1 CLA      0.037000
    131 H3A        80.6882   58.8425   36.0259 dc         1 CLA      0.041100
    132 H2A        79.7846   55.9911   36.2461 dc         1 CLA      0.083100
    133 H2         82.4892   52.9354   36.1124 da         1 CLA      0.180900
    134 H18        84.1624   57.2859   43.5285 dc         1 CLA     -0.003900
    135 H13        88.7495   55.8870   43.0201 dc         1 CLA      0.019700
    136 H12        81.0630   53.2483   34.1843 dc         1 CLA      0.120400
    137 H11        82.4654   53.5405   33.0809 dc         1 CLA      0.120400
    138 C1         69.4095   61.6310   49.8358 Z1         2 LUT      0.509236
    139 C2         68.1421   61.4063   50.6123 Z2         2 LUT     -0.434695
    140 C3         67.4410   62.6343   50.9924 Z3         2 LUT      0.437453
    141 O3         68.1629   63.1977   52.1394 S1         2 LUT     -0.547129
    142 C4         67.4272   63.7011   49.8477 Z4         2 LUT     -0.468603
    143 C5         68.1516   63.3963   48.5528 Z5         2 LUT      0.279246
    144 C6         69.0774   62.4097   48.5651 Z6         2 LUT     -0.305473
    145 C7         69.6217   61.7638   47.3256 Z7         2 LUT      0.069402
    146 C8         70.8068   62.0601   46.7349 Z8         2 LUT     -0.191631
    147 C9         71.3523   61.6744   45.4204 Z9         2 LUT      0.196698
    148 C10        72.3363   62.4414   44.8266 Y1         2 LUT     -0.208611
    149 C11        72.9091   62.3493   43.5236 Y2         2 LUT      0.030784
    150 C12        73.9550   63.1877   43.3051 Y3         2 LUT     -0.220316
    151 C13        74.9185   63.1100   42.2273 Y4         2 LUT      0.215937
    152 C14        76.1171   63.7396   42.2945 Y5         2 LUT     -0.185793
    153 C15        77.2441   63.9035   41.3375 Y6         2 LUT     -0.057835
    154 C16        70.1155   60.2196   49.6523 Y7         2 LUT     -0.405615
    155 C17        70.4644   62.4548   50.6509 Y7         2 LUT     -0.405615
    156 C18        67.8532   64.4153   47.4585 Y9         2 LUT     -0.369639
    157 C19        70.7231   60.4795   44.7240 W1         2 LUT     -0.333362
    158 C20        74.6286   62.4719   40.8986 W2         2 LUT     -0.323439
    159 C21        88.5722   64.0305   35.1223 Z1         2 LUT      0.406104
    160 C22        89.1417   63.3736   33.8790 Z2         2 LUT     -0.404965
    161 C23        89.0223   64.1320   32.5731 Z3         2 LUT      0.391255
    162 O23        89.2618   63.0618   31.6505 S1         2 LUT     -0.528210
    163 C24        87.7336   64.9197   32.3762 W6         2 LUT     -0.258361
    164 C25        86.8725   65.1563   33.3504 Z5         2 LUT      0.133546
    165 C26        87.0842   64.4393   34.8391 W8         2 LUT     -0.147008
    166 C27        86.4600   65.2181   35.9702 Z7         2 LUT      0.023843
    167 C28        85.2991   65.0074   36.6496 Z8         2 LUT     -0.216987
    168 C29        84.9025   65.4990   38.0095 Z9         2 LUT      0.206524
    169 C30        83.6513   65.3166   38.4369 Y1         2 LUT     -0.215556
    170 C31        82.9287   65.6335   39.6488 Y2         2 LUT      0.025142
    171 C32        81.6894   65.0984   39.7418 Y3         2 LUT     -0.212209
    172 C33        80.8040   65.2148   40.8456 Y4         2 LUT      0.240937
    173 C34        79.5517   64.5947   40.8420 Y5         2 LUT     -0.218862
    174 C35        78.4160   64.4728   41.7626 Y6         2 LUT     -0.023547
    175 C36        89.4697   65.3520   35.4132 Y7         2 LUT     -0.393485
    176 C37        88.9438   63.0552   36.3077 Y7         2 LUT     -0.393485
    177 C38        85.7037   66.1826   33.2640 Y9         2 LUT     -0.387526
    178 C39        85.7698   66.3845   38.7765 W1         2 LUT     -0.322618
    179 C40        81.1901   66.0811   42.0015 W2         2 LUT     -0.358472
    180 H403       80.3690   66.1025   42.7490 R7         2 LUT      0.097720
    181 H402       82.1043   65.6318   42.4777 R7         2 LUT      0.097720
    182 H401       81.3409   67.0825   41.6763 R7         2 LUT      0.097720
    183 H393       85.7665   66.2378   39.8237 R4         2 LUT      0.082505
    184 H392       86.8407   66.3783   38.5145 R4         2 LUT      0.082505
    185 H391       85.5256   67.4442   38.7467 R4         2 LUT      0.082505
    186 H383       85.4964   66.7921   34.1098 R1         2 LUT      0.104030
    187 H382       85.7315   66.9519   32.4753 R1         2 LUT      0.104030
    188 H381       84.7972   65.6104   33.0410 R1         2 LUT      0.104030
    189 H373       90.0085   62.8438   36.3748 T4         2 LUT      0.089537
    190 H372       88.6435   63.2701   37.2919 T4         2 LUT      0.089537
    191 H371       88.3775   62.0933   36.2250 T4         2 LUT      0.089537
    192 H363       89.3267   66.1438   34.6135 T4         2 LUT      0.089537
    193 H362       89.1828   65.8307   36.3559 T4         2 LUT      0.089537
    194 H361       90.5104   65.1004   35.3513 T4         2 LUT      0.089537
    195 H222       90.2482   63.2941   33.9862 U2         2 LUT      0.127376
    196 H221       88.6465   62.3903   33.7033 U2         2 LUT      0.127376
    197 H203       73.6677   62.8908   40.5135 R7         2 LUT      0.087068
    198 H202       75.3514   62.6591   40.0856 R7         2 LUT      0.087068
    199 H201       74.5407   61.3896   40.9314 R7         2 LUT      0.087068
    200 H193       69.6984   60.8867   44.4051 R4         2 LUT      0.089716
    201 H192       71.2417   60.1035   43.8512 R4         2 LUT      0.089716
    202 H191       70.5438   59.6469   45.4364 R4         2 LUT      0.089716
    203 H183       67.2130   65.2277   47.7708 R1         2 LUT      0.094572
    204 H182       68.8154   64.7840   47.1089 R1         2 LUT      0.094572
    205 H181       67.4295   63.9509   46.5493 R1         2 LUT      0.094572
    206 H173       70.6578   62.1507   51.6256 T4         2 LUT      0.093752
    207 H172       71.4418   62.3938   50.1497 T4         2 LUT      0.093752
    208 H171       70.1473   63.5167   50.6816 T4         2 LUT      0.093752
    209 H163       71.0621   60.3062   49.1390 T4         2 LUT      0.093752
    210 H162       70.3539   59.7644   50.5827 T4         2 LUT      0.093752
    211 H161       69.5910   59.3257   49.1712 T4         2 LUT      0.093752
    212 HO3        67.9685   62.8209   52.9873 Q1         2 LUT      0.300121
    213 H8         71.5610   62.7491   47.1237 U7         2 LUT      0.080784
    214 H7         68.9103   61.2479   46.8486 U6         2 LUT      0.042190
    215 H42        66.3590   63.8145   49.5381 U5         2 LUT      0.145166
    216 H41        67.5717   64.7027   50.2127 U5         2 LUT      0.145166
    217 H35        78.5647   64.8712   42.7489 T3         2 LUT      0.077919
    218 H34        79.4156   64.0726   39.9383 T2         2 LUT      0.073626
    219 H32        81.2458   64.5709   38.9317 T1         2 LUT      0.092510
    220 H31        83.3512   66.2688   40.4411 U9         2 LUT      0.070048
    221 H30        83.1410   64.7126   37.7824 U8         2 LUT      0.085442
    222 H3         66.4423   62.4995   51.3912 U3         2 LUT     -0.031596
    223 H28        84.4831   64.4668   36.2117 U7         2 LUT      0.084728
    224 H27        87.0350   65.9743   36.4332 U6         2 LUT      0.087291
    225 H26        86.5389   63.3928   34.6586 Q6         2 LUT      0.075325
    226 H24        87.6289   65.5525   31.4159 Q5         2 LUT      0.094482
    227 H23        89.9005   64.8901   32.6089 U3         2 LUT     -0.024869
    228 H22        67.4111   60.8296   50.0429 U2         2 LUT      0.127376
    229 H21        68.2922   60.8720   51.5840 U2         2 LUT      0.127376
    230 H15        77.3179   63.5808   40.2774 T3         2 LUT      0.093200
    231 H14        76.2996   64.0619   43.3699 T2         2 LUT      0.068865
    232 H12        74.2172   63.8672   44.1708 T1         2 LUT      0.095507
    233 H11        72.6227   61.6437   42.6744 U9         2 LUT      0.068930
    234 H10        72.6043   63.3313   45.4077 U8         2 LUT      0.083911
    235 H1         89.1579   63.3377   30.7189 Q1         2 LUT      0.297311
@<TRIPOS>BOND
    1     6     1 1
    2     7     2 1
    3     8     3 1
    4     9     4 1
    5    11     4 1
    6    12     6 1
    7    13     9 1
    8    16     9 1
    9    25     5 1
   10    25    16 1
   11    26    10 1
   12    26    17 1
   13    27    18 1
   14    28    14 1
   15    28    19 1
   16    29    12 1
   17    30    13 1
   18    31    24 1
   19    32     1 1
   20    32    25 1
   21    33    21 1
   22    33    26 1
   23    34    22 1
   24    34    27 1
   25    35    23 1
   26    35    28 1
   27    36    12 1
   28    36    24 1
   29    37    13 1
   30    37    15 1
   31    38    31 1
   32    39    20 1
   33    39    32 1
   34    40     2 1
   35    40    33 1
   36    41     3 1
   37    41    34 1
   38    42     4 1
   39    42    35 1
   40    43    38 1
   41    44     5 1
   42    44    17 1
   43    44    39 1
   44    45    10 1
   45    45    18 1
   46    45    40 1
   47    46    19 1
   48    46    41 1
   49    47    14 1
   50    47    16 1
   51    47    42 1
   52    48    38 1
   53    49    48 1
   54    50    49 1
   55    51    50 1
   56    52    51 1
   57    53    51 1
   58    54    53 1
   59    55    54 1
   60    56    55 1
   61    57    56 1
   62    58    56 1
   63    59    58 1
   64    60    59 1
   65    61    60 1
   66    62    61 1
   67    63    61 1
   68    64    27 1
   69    64    46 1
   70    65     5 1
   71    65    10 1
   72    65    64 1
   73    65    14 1
   74    66    23 1
   75    67    23 1
   76    68    23 1
   77    69    22 1
   78    70    22 1
   79    71    22 1
   80    72    21 1
   81    73    21 1
   82    74    21 1
   83    75    20 1
   84    76    20 1
   85    77    20 1
   86    78    15 1
   87    79    15 1
   88    80    15 1
   89    81     8 1
   90    82     8 1
   91    83     8 1
   92    84     7 1
   93    85     7 1
   94    86     6 1
   95    87     6 1
   96    88     3 1
   97    89     3 1
   98    90     1 1
   99    91     1 1
  100    92    63 1
  101    93    63 1
  102    94    63 1
  103    95    62 1
  104    96    62 1
  105    97    62 1
  106    98    60 1
  107    99    60 1
  108   100    59 1
  109   101    59 1
  110   102    58 1
  111   103    58 1
  112   104    57 1
  113   105    57 1
  114   106    57 1
  115   107    55 1
  116   108    55 1
  117   109    54 1
  118   110    54 1
  119   111    53 1
  120   112    53 1
  121   113    19 1
  122   114    18 1
  123   115    17 1
  124   116     9 1
  125   117     2 1
  126   118    52 1
  127   119    52 1
  128   120    52 1
  129   121    51 1
  130   122    50 1
  131   123    50 1
  132   124    49 1
  133   125    49 1
  134   126    48 1
  135   127    48 1
  136   128    43 1
  137   129    43 1
  138   130    43 1
  139   131    39 1
  140   132    32 1
  141   133    31 1
  142   134    61 1
  143   135    56 1
  144   136    24 1
  145   137    24 1
  146   139   138 1
  147   140   139 1
  148   141   140 1
  149   142   140 1
  150   143   142 1
  151   144   138 1
  152   144   143 1
  153   145   144 1
  154   146   145 1
  155   147   146 1
  156   148   147 1
  157   149   148 1
  158   150   149 1
  159   151   150 1
  160   152   151 1
  161   153   152 1
  162   154   138 1
  163   155   138 1
  164   156   143 1
  165   157   147 1
  166   158   151 1
  167   160   159 1
  168   161   160 1
  169   162   161 1
  170   163   161 1
  171   164   163 1
  172   165   159 1
  173   165   164 1
  174   166   165 1
  175   167   166 1
  176   168   167 1
  177   169   168 1
  178   170   169 1
  179   171   170 1
  180   172   171 1
  181   173   172 1
  182   174   153 1
  183   174   173 1
  184   175   159 1
  185   176   159 1
  186   177   164 1
  187   178   168 1
  188   179   172 1
  189   180   179 1
  190   181   179 1
  191   182   179 1
  192   183   178 1
  193   184   178 1
  194   185   178 1
  195   186   177 1
  196   187   177 1
  197   188   177 1
  198   189   176 1
  199   190   176 1
  200   191   176 1
  201   192   175 1
  202   193   175 1
  203   194   175 1
  204   195   160 1
  205   196   160 1
  206   197   158 1
  207   198   158 1
  208   199   158 1
  209   200   157 1
  210   201   157 1
  211   202   157 1
  212   203   156 1
  213   204   156 1
  214   205   156 1
  215   206   155 1
  216   207   155 1
  217   208   155 1
  218   209   154 1
  219   210   154 1
  220   211   154 1
  221   212   141 1
  222   213   146 1
  223   214   145 1
  224   215   142 1
  225   216   142 1
  226   217   174 1
  227   218   173 1
  228   219   171 1
  229   220   170 1
  230   221   169 1
  231   222   140 1
  232   223   167 1
  233   224   166 1
  234   225   165 1
  235   226   163 1
  236   227   161 1
  237   228   139 1
  238   229   139 1
  239   230   153 1
  240   231   152 1
  241   232   150 1
  242   233   149 1
  243   234   148 1
  244   235   162 1
  245   65    153 1
  246   65    174 1
@<TRIPOS>SUBSTRUCTURE
      1 CLA               1 ****               0 ****  **** 
      2 LUT             138 ****               0 ****  **** 
