@<TRIPOS>MOLECULE
Cpptraj generated mol2 file.
  235   246     2     0     0
SMALL
USER_CHARGES


@<TRIPOS>ATOM
      1 CAA        77.6539   58.0780   34.9954 a2         1 CLA     -0.055900
      2 CAB        77.1901   61.9540   43.8256 c8         1 CLA     -0.148500
      3 CAC        70.2997   57.8574   43.2080 a2         1 CLA     -0.012600
      4 CAD        73.7563   55.0478   36.1806 ck         1 CLA      0.398800
      5 NA         76.6017   58.3573   38.2882 ns         1 CLA     -0.225500
      6 CBA        78.9903   58.0181   34.1636 a2         1 CLA     -0.135000
      7 CBB        78.3073   62.0176   44.6641 c0         1 CLA     -0.395200
      8 CBC        70.4603   56.5106   43.8241 a3         1 CLA     -0.037700
      9 CBD        75.2138   55.5757   36.0148 a1         1 CLA     -0.053900
     10 NB         76.2451   59.9157   40.8172 nm         1 CLA     -0.295700
     11 OBD        73.2392   54.2164   35.3961 o2         1 CLA     -0.494600
     12 CGA        79.4045   56.6200   33.6703 c4         1 CLA      0.827000
     13 CGD        76.0878   54.3212   36.1330 c4         1 CLA      0.655300
     14 ND         73.6944   57.3797   38.8200 nm         1 CLA     -0.291600
     15 CED        76.4131   52.2977   37.3929 a3         1 CLA      0.005400
     16 CHA        75.4132   56.6311   37.0988 cs         1 CLA     -0.123800
     17 CHB        78.3139   59.6489   39.4451 aa         1 CLA     -0.291900
     18 CHC        74.8578   60.1046   42.8729 aa         1 CLA     -0.090400
     19 CHD        71.7299   57.2306   40.3047 aa         1 CLA     -0.052000
     20 CMA        79.9770   57.6356   37.8520 a3         1 CLA     -0.230700
     21 CMB        79.6313   61.5781   41.7806 a3         1 CLA     -0.180800
     22 CMC        72.4027   59.5771   44.7963 a3         1 CLA     -0.134000
     23 CMD        70.8396   54.9196   38.2740 a3         1 CLA     -0.141100
     24 C1         80.2321   54.4813   34.2872 a2         1 CLA      0.023000
     25 C1A        76.5151   57.5053   37.2539 ac         1 CLA     -0.015100
     26 C1B        77.6356   60.1318   40.6049 cr         1 CLA      0.054700
     27 C1C        73.6474   59.4226   42.5192 cn         1 CLA     -0.005600
     28 C1D        72.4238   56.8751   39.1211 ap         1 CLA     -0.047300
     29 O1A        79.4682   56.2777   32.4707 o2         1 CLA     -0.610800
     30 O1D        76.8197   53.8765   35.2839 o2         1 CLA     -0.558200
     31 C2         80.1906   53.5596   35.5030 c8         1 CLA     -0.325100
     32 C2A        77.7973   57.5420   36.4620 a1         1 CLA      0.098600
     33 C2B        78.1504   61.0382   41.6291 cb         1 CLA      0.088500
     34 C2C        72.4876   59.2034   43.3419 cb         1 CLA      0.053700
     35 C2D        72.1000   55.7722   38.2356 cb         1 CLA      0.058900
     36 O2A        79.7680   55.7895   34.7133 o1         1 CLA     -0.437200
     37 O2D        75.8162   53.6811   37.3193 o1         1 CLA     -0.357600
     38 C3         81.2823   53.2600   36.2394 c5         1 CLA      0.031200
     39 C3A        78.7807   58.4482   37.2953 a1         1 CLA      0.166800
     40 C3B        77.1546   61.1470   42.6102 cb         1 CLA      0.035000
     41 C3C        71.5857   58.4310   42.6365 cb         1 CLA     -0.089900
     42 C3D        73.2318   55.7011   37.4158 cb         1 CLA     -0.035900
     43 C4         82.2106   52.1105   36.0060 a3         1 CLA     -0.053300
     44 C4A        77.7982   58.8494   38.4489 ac         1 CLA      0.001800
     45 C4B        76.0051   60.3961   42.1478 cn         1 CLA     -0.020900
     46 C4C        72.2347   58.1429   41.3721 cr         1 CLA     -0.044400
     47 C4D        74.2009   56.6358   37.8199 c6         1 CLA     -0.046000
     48 C5         81.4681   53.9630   37.5420 a2         1 CLA     -0.070400
     49 C6         82.7254   54.7890   37.6250 a2         1 CLA      0.043900
     50 C7         82.8794   55.4736   38.9928 a2         1 CLA     -0.150000
     51 C8         83.7779   56.7363   39.0849 a1         1 CLA      0.064200
     52 C9         85.2166   56.3379   38.6438 a3         1 CLA     -0.259300
     53 C10        83.8597   57.2687   40.5385 a2         1 CLA     -0.071900
     54 C11        82.7614   58.2362   40.9856 a2         1 CLA      0.014500
     55 C12        83.2405   59.0443   42.2699 a2         1 CLA     -0.112100
     56 C13        83.4613   58.1802   43.6191 a1         1 CLA      0.089200
     57 C14        82.3232   57.1816   43.8856 a3         1 CLA     -0.239100
     58 C15        83.8112   59.0178   44.9064 a2         1 CLA     -0.102200
     59 C16        82.6910   59.9807   45.4818 a2         1 CLA      0.023900
     60 C17        83.3969   60.8277   46.5734 a2         1 CLA     -0.105700
     61 C18        82.5094   61.7303   47.5085 a1         1 CLA      0.206800
     62 C19        81.8765   60.8814   48.5949 a3         1 CLA     -0.280100
     63 C20        83.2995   62.8505   48.2125 a3         1 CLA     -0.280100
     64 NC         73.4563   58.8500   41.3092 nx         1 CLA     -0.309200
     65 MG         74.9120   58.7800   39.7400 mg         1 CLA      0.895000
     66 HMD3       69.9935   55.3492   37.6632 dc         1 CLA      0.064300
     67 HMD2       71.1388   53.8986   37.9692 dc         1 CLA      0.064300
     68 HMD1       70.5951   54.8545   39.3256 dc         1 CLA      0.064300
     69 HMC3       71.3859   60.0035   45.0121 dc         1 CLA      0.052100
     70 HMC2       72.4894   58.7276   45.4878 dc         1 CLA      0.052100
     71 HMC1       73.0968   60.3956   44.9726 dc         1 CLA      0.052100
     72 HMB3       79.8242   62.0717   40.7908 dc         1 CLA      0.063600
     73 HMB2       79.6951   62.2759   42.5683 dc         1 CLA      0.063600
     74 HMB1       80.3159   60.7550   41.8753 dc         1 CLA      0.063600
     75 HMA3       80.3788   57.2179   36.9958 dc         1 CLA      0.058300
     76 HMA2       80.6451   58.3018   38.4719 dc         1 CLA      0.058300
     77 HMA1       79.6600   56.7750   38.4768 dc         1 CLA      0.058300
     78 HED3       75.9345   51.7237   36.6734 dc         1 CLA      0.079300
     79 HED2       77.4764   52.3593   37.2454 dc         1 CLA      0.079300
     80 HED1       76.3543   51.8780   38.3987 dc         1 CLA      0.079300
     81 HBC3       69.4433   56.1661   44.1164 dc         1 CLA      0.016300
     82 HBC2       70.9250   55.8470   43.1408 dc         1 CLA      0.016300
     83 HBC1       71.1563   56.5750   44.7051 dc         1 CLA      0.016300
     84 HBB2       78.3075   62.5619   45.5815 da         1 CLA      0.183000
     85 HBB1       79.1550   61.3744   44.5036 da         1 CLA      0.183000
     86 HBA2       78.7356   58.5507   33.2912 dc         1 CLA      0.029400
     87 HBA1       79.8121   58.5160   34.6128 dc         1 CLA      0.029400
     88 HAC2       69.7285   58.5893   43.8866 dc         1 CLA      0.029300
     89 HAC1       69.6576   57.7723   42.3287 dc         1 CLA      0.029300
     90 HAA2       76.8553   57.5799   34.5873 dc         1 CLA      0.028700
     91 HAA1       77.2499   59.0988   35.0340 dc         1 CLA      0.028700
     92 H203       82.7590   63.6829   48.6118 dc         1 CLA      0.065600
     93 H202       83.9752   62.4433   48.9306 dc         1 CLA      0.065600
     94 H201       84.0570   63.2565   47.5077 dc         1 CLA      0.065600
     95 H193       81.2980   61.5477   49.1524 dc         1 CLA      0.065600
     96 H192       81.0316   60.2703   48.2034 dc         1 CLA      0.065600
     97 H191       82.5944   60.3196   49.2136 dc         1 CLA      0.065600
     98 H172       84.1862   60.3056   47.1789 dc         1 CLA      0.027600
     99 H171       84.0835   61.4355   45.9628 dc         1 CLA      0.027600
    100 H162       82.2245   60.5466   44.7115 dc         1 CLA      0.002900
    101 H161       81.9140   59.3700   45.9475 dc         1 CLA      0.002900
    102 H152       84.2507   58.3800   45.6426 dc         1 CLA      0.029100
    103 H151       84.5509   59.6719   44.4890 dc         1 CLA      0.029100
    104 H143       81.3820   57.7276   43.8397 dc         1 CLA      0.063600
    105 H142       82.3558   56.3832   43.2182 dc         1 CLA      0.063600
    106 H141       82.4186   56.6168   44.7776 dc         1 CLA      0.063600
    107 H122       84.1914   59.5965   42.2170 dc         1 CLA      0.032500
    108 H121       82.4645   59.8634   42.4401 dc         1 CLA      0.032500
    109 H112       82.3423   58.9813   40.2916 dc         1 CLA      0.006600
    110 H111       81.9532   57.5734   41.1632 dc         1 CLA      0.006600
    111 H102       83.9749   56.4036   41.1994 dc         1 CLA      0.024100
    112 H101       84.7637   57.8990   40.5616 dc         1 CLA      0.024100
    113 HHD        70.7214   56.7637   40.4686 da         1 CLA      0.174300
    114 HHC        74.9358   60.5567   43.8985 da         1 CLA      0.136800
    115 HHB        79.3579   59.9023   39.2228 da         1 CLA      0.138300
    116 HBD        75.4798   56.1309   35.1044 dc         1 CLA      0.107700
    117 HAB        76.3685   62.5997   44.0372 da         1 CLA      0.155200
    118 H93        85.6402   55.8717   39.5219 dc         1 CLA      0.069500
    119 H92        85.3208   55.6916   37.8161 dc         1 CLA      0.069500
    120 H91        85.7478   57.2358   38.5629 dc         1 CLA      0.069500
    121 H8         83.4116   57.5168   38.3976 dc         1 CLA      0.029300
    122 H72        81.8748   55.7978   39.3372 dc         1 CLA      0.044400
    123 H71        83.1834   54.7831   39.8205 dc         1 CLA      0.044400
    124 H62        83.5540   54.1852   37.5377 dc         1 CLA      0.015600
    125 H61        82.6082   55.6010   36.9673 dc         1 CLA      0.015600
    126 H52        80.6288   54.5466   37.8307 dc         1 CLA      0.033200
    127 H51        81.6436   53.1935   38.2839 dc         1 CLA      0.033200
    128 H43        83.1471   52.5059   35.6770 dc         1 CLA      0.037000
    129 H42        82.3834   51.4372   36.8256 dc         1 CLA      0.037000
    130 H41        81.7481   51.5948   35.1151 dc         1 CLA      0.037000
    131 H3A        79.2363   59.2650   36.7774 dc         1 CLA      0.041100
    132 H2A        78.1612   56.5241   36.3803 dc         1 CLA      0.083100
    133 H2         79.2466   52.9918   35.6453 da         1 CLA      0.180900
    134 H18        81.8121   62.2760   46.8427 dc         1 CLA     -0.003900
    135 H13        84.3584   57.6274   43.2305 dc         1 CLA      0.019700
    136 H12        79.4681   54.1965   33.5704 dc         1 CLA      0.120400
    137 H11        81.2065   54.3681   33.8166 dc         1 CLA      0.120400
    138 C1         67.6927   61.4807   50.4238 Z1         2 LUT      0.509236
    139 C2         66.1933   61.4668   50.8924 Z2         2 LUT     -0.434695
    140 C3         65.4334   62.7270   51.1825 Z3         2 LUT      0.437453
    141 O3         65.5203   63.0629   52.5260 S1         2 LUT     -0.547129
    142 C4         65.9464   63.9236   50.3877 Z4         2 LUT     -0.468603
    143 C5         66.7608   63.5898   49.2188 Z5         2 LUT      0.279246
    144 C6         67.5626   62.5094   49.2304 Z6         2 LUT     -0.305473
    145 C7         68.0482   61.8207   47.9536 Z7         2 LUT      0.069402
    146 C8         69.0316   62.3240   47.2143 Z8         2 LUT     -0.191631
    147 C9         69.3933   62.0726   45.8133 Z9         2 LUT      0.196698
    148 C10        70.5122   62.7027   45.2227 Y1         2 LUT     -0.208611
    149 C11        71.0034   62.6393   43.8903 Y2         2 LUT      0.030784
    150 C12        72.2103   63.1979   43.6580 Y3         2 LUT     -0.220316
    151 C13        72.9421   63.2468   42.4548 Y4         2 LUT      0.215937
    152 C14        74.1204   64.0039   42.3573 Y5         2 LUT     -0.185793
    153 C15        75.1380   64.1168   41.3933 Y6         2 LUT     -0.057835
    154 C16        68.3504   60.1539   50.2690 Y7         2 LUT     -0.405615
    155 C17        68.4161   62.1498   51.6519 Y7         2 LUT     -0.405615
    156 C18        66.3664   64.3224   47.9978 Y9         2 LUT     -0.369639
    157 C19        68.5095   61.1230   45.0533 W1         2 LUT     -0.333362
    158 C20        72.3303   62.6506   41.1706 W2         2 LUT     -0.323439
    159 C21        87.0955   65.3906   35.9098 Z1         2 LUT      0.406104
    160 C22        87.6672   64.8115   34.6618 Z2         2 LUT     -0.404965
    161 C23        87.6611   65.6404   33.3869 Z3         2 LUT      0.391255
    162 O23        88.1818   64.8844   32.2740 S1         2 LUT     -0.528210
    163 C24        86.2671   66.3593   33.2177 W6         2 LUT     -0.258361
    164 C25        85.4173   66.5045   34.2060 Z5         2 LUT      0.133546
    165 C26        85.6083   65.7884   35.5700 W8         2 LUT     -0.147008
    166 C27        84.8631   66.4847   36.6664 Z7         2 LUT      0.023843
    167 C28        83.6867   66.1339   37.3019 Z8         2 LUT     -0.216987
    168 C29        83.1322   66.4435   38.5949 Z9         2 LUT      0.206524
    169 C30        81.9495   65.8568   38.9238 Y1         2 LUT     -0.215556
    170 C31        80.9663   66.0099   40.0164 Y2         2 LUT      0.025142
    171 C32        79.7283   65.3636   40.0894 Y3         2 LUT     -0.212209
    172 C33        78.6174   65.4211   41.0849 Y4         2 LUT      0.240937
    173 C34        77.4623   64.7885   40.9481 Y5         2 LUT     -0.218862
    174 C35        76.2369   64.7942   41.7124 Y6         2 LUT     -0.023547
    175 C36        87.9955   66.5445   36.2810 Y7         2 LUT     -0.393485
    176 C37        87.1022   64.2606   36.9779 Y7         2 LUT     -0.393485
    177 C38        84.0989   67.1057   33.8739 Y9         2 LUT     -0.387526
    178 C39        83.7842   67.4416   39.4803 W1         2 LUT     -0.322618
    179 C40        78.9884   66.0509   42.4425 W2         2 LUT     -0.358472
    180 H403       78.1663   65.9644   43.1126 R7         2 LUT      0.097720
    181 H402       79.8711   65.5870   42.9133 R7         2 LUT      0.097720
    182 H401       79.2586   67.1126   42.4508 R7         2 LUT      0.097720
    183 H393       83.9063   68.3815   38.9126 R4         2 LUT      0.082505
    184 H392       83.2348   67.7619   40.3321 R4         2 LUT      0.082505
    185 H391       84.8664   67.2640   39.6749 R4         2 LUT      0.082505
    186 H383       83.6082   66.4861   33.0259 R1         2 LUT      0.104030
    187 H382       83.4054   67.0949   34.7272 R1         2 LUT      0.104030
    188 H381       84.1763   68.1846   33.6274 R1         2 LUT      0.104030
    189 H373       86.5714   64.4851   37.9387 T4         2 LUT      0.089537
    190 H372       86.6712   63.3574   36.5233 T4         2 LUT      0.089537
    191 H371       88.0801   63.9771   37.1387 T4         2 LUT      0.089537
    192 H363       87.9789   67.3633   35.5491 T4         2 LUT      0.089537
    193 H362       87.8507   67.0284   37.2789 T4         2 LUT      0.089537
    194 H361       89.0480   66.2554   36.2234 T4         2 LUT      0.089537
    195 H222       88.7691   64.6463   34.7199 U2         2 LUT      0.127376
    196 H221       87.3585   63.7817   34.5577 U2         2 LUT      0.127376
    197 H203       71.4530   63.2029   40.8579 R7         2 LUT      0.087068
    198 H202       73.0583   62.4312   40.4381 R7         2 LUT      0.087068
    199 H201       71.9820   61.6393   41.4104 R7         2 LUT      0.087068
    200 H193       68.9732   61.0041   44.0946 R4         2 LUT      0.089716
    201 H192       68.3291   60.1529   45.5257 R4         2 LUT      0.089716
    202 H191       67.5383   61.6232   44.7534 R4         2 LUT      0.089716
    203 H183       65.3307   64.1422   47.9127 R1         2 LUT      0.094572
    204 H182       66.5153   65.4045   48.0217 R1         2 LUT      0.094572
    205 H181       66.8666   63.9746   47.1176 R1         2 LUT      0.094572
    206 H173       68.2941   61.5225   52.5493 T4         2 LUT      0.093752
    207 H172       69.4076   62.2583   51.3632 T4         2 LUT      0.093752
    208 H171       68.0477   63.1602   51.9347 T4         2 LUT      0.093752
    209 H163       67.8553   59.5056   49.4922 T4         2 LUT      0.093752
    210 H162       69.4452   60.3038   50.1054 T4         2 LUT      0.093752
    211 H161       68.3142   59.6105   51.2365 T4         2 LUT      0.093752
    212 HO3        64.9715   62.6217   53.1732 Q1         2 LUT      0.300121
    213 H8         69.5129   63.1496   47.7099 U7         2 LUT      0.080784
    214 H7         67.3615   61.1247   47.5452 U6         2 LUT      0.042190
    215 H42        65.2159   64.5901   50.1170 U5         2 LUT      0.145166
    216 H41        66.5482   64.5074   51.0799 U5         2 LUT      0.145166
    217 H35        76.2792   65.2891   42.7008 T3         2 LUT      0.077919
    218 H34        77.4049   64.1914   40.0161 T2         2 LUT      0.073626
    219 H32        79.5646   64.7334   39.1464 T1         2 LUT      0.092510
    220 H31        81.3262   66.5677   40.9116 U9         2 LUT      0.070048
    221 H30        81.6413   65.1942   38.1510 U8         2 LUT      0.085442
    222 H3         64.3852   62.4859   50.9322 U3         2 LUT     -0.031596
    223 H28        83.0550   65.5599   36.5740 U7         2 LUT      0.084728
    224 H27        85.4638   66.9865   37.4286 U6         2 LUT      0.087291
    225 H26        84.9513   64.8970   35.3677 Q6         2 LUT      0.075325
    226 H24        86.1508   66.8588   32.2826 Q5         2 LUT      0.094482
    227 H23        88.3596   66.4482   33.5217 U3         2 LUT     -0.024869
    228 H22        65.5911   61.0439   50.1412 U2         2 LUT      0.127376
    229 H21        65.9598   60.7840   51.6980 U2         2 LUT      0.127376
    230 H15        75.1691   63.5766   40.4639 T3         2 LUT      0.093200
    231 H14        74.4072   64.4026   43.3268 T2         2 LUT      0.068865
    232 H12        72.6127   63.7367   44.5351 T1         2 LUT      0.095507
    233 H11        70.5142   62.0557   43.1313 U9         2 LUT      0.068930
    234 H10        71.1101   63.2635   45.9328 U8         2 LUT      0.083911
    235 H1         87.5215   64.3471   31.7906 Q1         2 LUT      0.297311
@<TRIPOS>BOND
    1     6     1 1
    2     7     2 1
    3     8     3 1
    4     9     4 1
    5    11     4 1
    6    12     6 1
    7    13     9 1
    8    16     9 1
    9    25     5 1
   10    25    16 1
   11    26    10 1
   12    26    17 1
   13    27    18 1
   14    28    14 1
   15    28    19 1
   16    29    12 1
   17    30    13 1
   18    31    24 1
   19    32     1 1
   20    32    25 1
   21    33    21 1
   22    33    26 1
   23    34    22 1
   24    34    27 1
   25    35    23 1
   26    35    28 1
   27    36    12 1
   28    36    24 1
   29    37    13 1
   30    37    15 1
   31    38    31 1
   32    39    20 1
   33    39    32 1
   34    40     2 1
   35    40    33 1
   36    41     3 1
   37    41    34 1
   38    42     4 1
   39    42    35 1
   40    43    38 1
   41    44     5 1
   42    44    17 1
   43    44    39 1
   44    45    10 1
   45    45    18 1
   46    45    40 1
   47    46    19 1
   48    46    41 1
   49    47    14 1
   50    47    16 1
   51    47    42 1
   52    48    38 1
   53    49    48 1
   54    50    49 1
   55    51    50 1
   56    52    51 1
   57    53    51 1
   58    54    53 1
   59    55    54 1
   60    56    55 1
   61    57    56 1
   62    58    56 1
   63    59    58 1
   64    60    59 1
   65    61    60 1
   66    62    61 1
   67    63    61 1
   68    64    27 1
   69    64    46 1
   70    65     5 1
   71    65    10 1
   72    65    64 1
   73    65    14 1
   74    66    23 1
   75    67    23 1
   76    68    23 1
   77    69    22 1
   78    70    22 1
   79    71    22 1
   80    72    21 1
   81    73    21 1
   82    74    21 1
   83    75    20 1
   84    76    20 1
   85    77    20 1
   86    78    15 1
   87    79    15 1
   88    80    15 1
   89    81     8 1
   90    82     8 1
   91    83     8 1
   92    84     7 1
   93    85     7 1
   94    86     6 1
   95    87     6 1
   96    88     3 1
   97    89     3 1
   98    90     1 1
   99    91     1 1
  100    92    63 1
  101    93    63 1
  102    94    63 1
  103    95    62 1
  104    96    62 1
  105    97    62 1
  106    98    60 1
  107    99    60 1
  108   100    59 1
  109   101    59 1
  110   102    58 1
  111   103    58 1
  112   104    57 1
  113   105    57 1
  114   106    57 1
  115   107    55 1
  116   108    55 1
  117   109    54 1
  118   110    54 1
  119   111    53 1
  120   112    53 1
  121   113    19 1
  122   114    18 1
  123   115    17 1
  124   116     9 1
  125   117     2 1
  126   118    52 1
  127   119    52 1
  128   120    52 1
  129   121    51 1
  130   122    50 1
  131   123    50 1
  132   124    49 1
  133   125    49 1
  134   126    48 1
  135   127    48 1
  136   128    43 1
  137   129    43 1
  138   130    43 1
  139   131    39 1
  140   132    32 1
  141   133    31 1
  142   134    61 1
  143   135    56 1
  144   136    24 1
  145   137    24 1
  146   139   138 1
  147   140   139 1
  148   141   140 1
  149   142   140 1
  150   143   142 1
  151   144   138 1
  152   144   143 1
  153   145   144 1
  154   146   145 1
  155   147   146 1
  156   148   147 1
  157   149   148 1
  158   150   149 1
  159   151   150 1
  160   152   151 1
  161   153   152 1
  162   154   138 1
  163   155   138 1
  164   156   143 1
  165   157   147 1
  166   158   151 1
  167   160   159 1
  168   161   160 1
  169   162   161 1
  170   163   161 1
  171   164   163 1
  172   165   159 1
  173   165   164 1
  174   166   165 1
  175   167   166 1
  176   168   167 1
  177   169   168 1
  178   170   169 1
  179   171   170 1
  180   172   171 1
  181   173   172 1
  182   174   153 1
  183   174   173 1
  184   175   159 1
  185   176   159 1
  186   177   164 1
  187   178   168 1
  188   179   172 1
  189   180   179 1
  190   181   179 1
  191   182   179 1
  192   183   178 1
  193   184   178 1
  194   185   178 1
  195   186   177 1
  196   187   177 1
  197   188   177 1
  198   189   176 1
  199   190   176 1
  200   191   176 1
  201   192   175 1
  202   193   175 1
  203   194   175 1
  204   195   160 1
  205   196   160 1
  206   197   158 1
  207   198   158 1
  208   199   158 1
  209   200   157 1
  210   201   157 1
  211   202   157 1
  212   203   156 1
  213   204   156 1
  214   205   156 1
  215   206   155 1
  216   207   155 1
  217   208   155 1
  218   209   154 1
  219   210   154 1
  220   211   154 1
  221   212   141 1
  222   213   146 1
  223   214   145 1
  224   215   142 1
  225   216   142 1
  226   217   174 1
  227   218   173 1
  228   219   171 1
  229   220   170 1
  230   221   169 1
  231   222   140 1
  232   223   167 1
  233   224   166 1
  234   225   165 1
  235   226   163 1
  236   227   161 1
  237   228   139 1
  238   229   139 1
  239   230   153 1
  240   231   152 1
  241   232   150 1
  242   233   149 1
  243   234   148 1
  244   235   162 1
  245   65    153 1
  246   65    174 1
@<TRIPOS>SUBSTRUCTURE
      1 CLA               1 ****               0 ****  **** 
      2 LUT             138 ****               0 ****  **** 
