@<TRIPOS>MOLECULE
Cpptraj generated mol2 file.
  235   246     2     0     0
SMALL
USER_CHARGES


@<TRIPOS>ATOM
      1 CAA        80.2670   58.3047   35.3218 a2         1 CLA     -0.055900
      2 CAB        80.2884   62.5596   44.0259 c8         1 CLA     -0.148500
      3 CAC        73.3390   58.3423   43.9308 a2         1 CLA     -0.012600
      4 CAD        75.8555   55.8205   36.5746 ck         1 CLA      0.398800
      5 NA         79.0886   58.9525   38.6041 ns         1 CLA     -0.225500
      6 CBA        81.5101   58.0064   34.3846 a2         1 CLA     -0.135000
      7 CBB        81.4605   62.3774   44.7034 c0         1 CLA     -0.395200
      8 CBC        73.4925   56.8918   44.4847 a3         1 CLA     -0.037700
      9 CBD        77.3333   56.2446   36.2571 a1         1 CLA     -0.053900
     10 NB         79.0233   60.5811   41.2196 nm         1 CLA     -0.295700
     11 OBD        75.2093   54.9982   35.9057 o2         1 CLA     -0.494600
     12 CGA        81.8338   56.5420   34.0260 c4         1 CLA      0.827000
     13 CGD        78.2317   55.0647   36.3336 c4         1 CLA      0.655300
     14 ND         76.3366   58.0158   39.3083 nm         1 CLA     -0.291600
     15 CED        78.8208   52.9914   37.4111 a3         1 CLA      0.005400
     16 CHA        77.7746   57.1658   37.3964 cs         1 CLA     -0.123800
     17 CHB        80.8606   60.2587   39.6131 aa         1 CLA     -0.291900
     18 CHC        77.8272   60.6951   43.3101 aa         1 CLA     -0.090400
     19 CHD        74.5808   57.9113   40.9542 aa         1 CLA     -0.052000
     20 CMA        82.2413   57.8533   38.4651 a3         1 CLA     -0.230700
     21 CMB        82.3712   62.3459   41.4522 a3         1 CLA     -0.180800
     22 CMC        75.5286   60.2298   45.3791 a3         1 CLA     -0.134000
     23 CMD        73.0557   56.1398   38.7264 a3         1 CLA     -0.141100
     24 C1         82.6838   54.6065   35.1200 a2         1 CLA      0.023000
     25 C1A        78.9756   57.9516   37.6276 ac         1 CLA     -0.015100
     26 C1B        80.2629   60.8780   40.7757 cr         1 CLA      0.054700
     27 C1C        76.6606   59.9045   43.0616 cn         1 CLA     -0.005600
     28 C1D        75.1304   57.5880   39.6971 ap         1 CLA     -0.047300
     29 O1A        81.3175   55.8126   33.2037 o2         1 CLA     -0.610800
     30 O1D        79.3254   55.0607   35.7194 o2         1 CLA     -0.558200
     31 C2         83.7330   54.2573   36.1430 c8         1 CLA     -0.325100
     32 C2A        80.2557   57.8397   36.8374 a1         1 CLA      0.098600
     33 C2B        80.9552   61.7961   41.6577 cb         1 CLA      0.088500
     34 C2C        75.5287   59.7213   43.9903 cb         1 CLA      0.053700
     35 C2D        74.4501   56.7645   38.6316 cb         1 CLA      0.058900
     36 O2A        82.8000   56.0463   34.8983 o1         1 CLA     -0.437200
     37 O2D        77.9288   54.1337   37.3053 o1         1 CLA     -0.357600
     38 C3         84.7738   53.4201   36.0193 c5         1 CLA      0.031200
     39 C3A        81.2654   58.6916   37.7025 a1         1 CLA      0.166800
     40 C3B        80.0960   61.8145   42.7728 cb         1 CLA      0.035000
     41 C3C        74.6358   58.8625   43.3594 cb         1 CLA     -0.089900
     42 C3D        75.4817   56.6203   37.6998 cb         1 CLA     -0.035900
     43 C4         84.6735   51.9364   36.2856 a3         1 CLA     -0.053300
     44 C4A        80.3164   59.4540   38.6614 ac         1 CLA      0.001800
     45 C4B        78.9078   61.0364   42.4549 cn         1 CLA     -0.020900
     46 C4C        75.1819   58.6736   42.0215 cr         1 CLA     -0.044400
     47 C4D        76.6192   57.2775   38.2314 c6         1 CLA     -0.046000
     48 C5         86.0813   53.9012   35.3782 a2         1 CLA     -0.070400
     49 C6         86.7847   55.0708   36.0855 a2         1 CLA      0.043900
     50 C7         86.9609   54.8563   37.6434 a2         1 CLA     -0.150000
     51 C8         87.5578   56.0379   38.4798 a1         1 CLA      0.064200
     52 C9         88.6405   56.9570   37.8384 a3         1 CLA     -0.259300
     53 C10        88.0122   55.5157   39.8895 a2         1 CLA     -0.071900
     54 C11        88.1448   56.5981   41.0283 a2         1 CLA      0.014500
     55 C12        88.2329   55.7963   42.3330 a2         1 CLA     -0.112100
     56 C13        88.3734   56.6657   43.6608 a1         1 CLA      0.089200
     57 C14        89.7634   57.3910   43.8141 a3         1 CLA     -0.239100
     58 C15        88.0175   55.7016   44.8304 a2         1 CLA     -0.102200
     59 C16        87.5464   56.4572   46.1551 a2         1 CLA      0.023900
     60 C17        87.5317   55.4124   47.2753 a2         1 CLA     -0.105700
     61 C18        87.0471   56.1207   48.5458 a1         1 CLA      0.206800
     62 C19        85.6568   56.6775   48.4192 a3         1 CLA     -0.280100
     63 C20        87.2305   55.1950   49.7321 a3         1 CLA     -0.280100
     64 NC         76.4165   59.2295   41.8964 nx         1 CLA     -0.309200
     65 MG         77.6493   59.3211   40.2508 mg         1 CLA      0.895000
     66 HMD3       73.0867   55.3448   37.9383 dc         1 CLA      0.064300
     67 HMD2       72.9670   55.8622   39.7521 dc         1 CLA      0.064300
     68 HMD1       72.3668   56.9673   38.5316 dc         1 CLA      0.064300
     69 HMC3       74.7063   59.8784   46.0010 dc         1 CLA      0.052100
     70 HMC2       76.3811   59.8656   45.9351 dc         1 CLA      0.052100
     71 HMC1       75.6480   61.2934   45.2833 dc         1 CLA      0.052100
     72 HMB3       82.9795   61.7758   42.1923 dc         1 CLA      0.063600
     73 HMB2       82.6995   62.3017   40.4271 dc         1 CLA      0.063600
     74 HMB1       82.3698   63.3358   41.7648 dc         1 CLA      0.063600
     75 HMA3       82.7612   57.2167   37.8517 dc         1 CLA      0.058300
     76 HMA2       82.8713   58.4924   39.0188 dc         1 CLA      0.058300
     77 HMA1       81.7025   57.2045   39.1901 dc         1 CLA      0.058300
     78 HED3       79.7185   53.3518   37.9478 dc         1 CLA      0.079300
     79 HED2       78.4544   52.2348   38.0716 dc         1 CLA      0.079300
     80 HED1       79.1707   52.4438   36.5215 dc         1 CLA      0.079300
     81 HBC3       72.6982   56.4947   45.0721 dc         1 CLA      0.016300
     82 HBC2       73.8144   56.2674   43.6190 dc         1 CLA      0.016300
     83 HBC1       74.3384   57.0190   45.1773 dc         1 CLA      0.016300
     84 HBB2       81.6500   62.8377   45.6495 da         1 CLA      0.183000
     85 HBB1       82.2141   61.6419   44.3509 da         1 CLA      0.183000
     86 HBA2       81.3345   58.5691   33.4268 dc         1 CLA      0.029400
     87 HBA1       82.4635   58.4529   34.7293 dc         1 CLA      0.029400
     88 HAC2       73.0438   59.0044   44.7508 dc         1 CLA      0.029300
     89 HAC1       72.4901   58.4326   43.2792 dc         1 CLA      0.029300
     90 HAA2       79.3301   58.0121   34.9024 dc         1 CLA      0.028700
     91 HAA1       80.1264   59.3871   35.3588 dc         1 CLA      0.028700
     92 H203       86.5762   54.3350   49.7215 dc         1 CLA      0.065600
     93 H202       88.2785   54.8521   49.8941 dc         1 CLA      0.065600
     94 H201       86.8320   55.7460   50.5809 dc         1 CLA      0.065600
     95 H193       85.5855   57.5071   47.7785 dc         1 CLA      0.065600
     96 H192       84.9263   55.8900   48.3110 dc         1 CLA      0.065600
     97 H191       85.2440   57.0602   49.3626 dc         1 CLA      0.065600
     98 H172       86.8342   54.6368   46.9626 dc         1 CLA      0.027600
     99 H171       88.5866   55.1003   47.4233 dc         1 CLA      0.027600
    100 H162       88.2916   57.2097   46.4764 dc         1 CLA      0.002900
    101 H161       86.6045   57.0148   45.9649 dc         1 CLA      0.002900
    102 H152       87.1810   55.1349   44.5039 dc         1 CLA      0.029100
    103 H151       88.8466   55.0352   45.0076 dc         1 CLA      0.029100
    104 H143       90.6084   56.6767   43.7825 dc         1 CLA      0.063600
    105 H142       89.8971   58.0654   42.9839 dc         1 CLA      0.063600
    106 H141       89.7346   57.9426   44.7232 dc         1 CLA      0.063600
    107 H122       87.3944   55.1127   42.3731 dc         1 CLA      0.032500
    108 H121       89.1395   55.2735   42.2324 dc         1 CLA      0.032500
    109 H112       89.0702   57.1664   40.8496 dc         1 CLA      0.006600
    110 H111       87.3658   57.3382   41.0566 dc         1 CLA      0.006600
    111 H102       87.2743   54.7656   40.1096 dc         1 CLA      0.024100
    112 H101       88.9780   54.9219   39.7414 dc         1 CLA      0.024100
    113 HHD        73.6123   57.5662   41.1822 da         1 CLA      0.174300
    114 HHC        77.9239   61.1502   44.3300 da         1 CLA      0.136800
    115 HHB        81.9109   60.5572   39.4208 da         1 CLA      0.138300
    116 HBD        77.4183   56.7697   35.3968 dc         1 CLA      0.107700
    117 HAB        79.4610   63.0955   44.5115 da         1 CLA      0.155200
    118 H93        89.4949   56.2842   37.4957 dc         1 CLA      0.069500
    119 H92        88.2761   57.4462   36.8514 dc         1 CLA      0.069500
    120 H91        89.0618   57.7648   38.4809 dc         1 CLA      0.069500
    121 H8         86.7374   56.6894   38.8058 dc         1 CLA      0.029300
    122 H72        86.0017   54.6857   38.0259 dc         1 CLA      0.044400
    123 H71        87.7138   54.0552   37.7540 dc         1 CLA      0.044400
    124 H62        87.8077   55.2937   35.7163 dc         1 CLA      0.015600
    125 H61        86.1864   55.9711   35.9515 dc         1 CLA      0.015600
    126 H52        86.7644   53.0209   35.4954 dc         1 CLA      0.033200
    127 H51        85.9032   54.2291   34.3642 dc         1 CLA      0.033200
    128 H43        84.7562   51.4855   35.2824 dc         1 CLA      0.037000
    129 H42        85.5228   51.6509   36.8600 dc         1 CLA      0.037000
    130 H41        83.6816   51.6486   36.7282 dc         1 CLA      0.037000
    131 H3A        81.8874   59.4988   37.2699 dc         1 CLA      0.041100
    132 H2A        80.5077   56.7848   36.9476 dc         1 CLA      0.083100
    133 H2         83.8694   54.8353   37.0328 da         1 CLA      0.180900
    134 H18        87.7295   56.9580   48.6466 dc         1 CLA     -0.003900
    135 H13        87.5493   57.3767   43.5492 dc         1 CLA      0.019700
    136 H12        81.6497   54.2474   35.4317 dc         1 CLA      0.120400
    137 H11        82.9343   53.9844   34.1936 dc         1 CLA      0.120400
    138 C1         69.6496   61.9895   50.4329 Z1         2 LUT      0.509236
    139 C2         68.5028   62.0535   51.4485 Z2         2 LUT     -0.434695
    140 C3         67.4428   63.2085   51.2920 Z3         2 LUT      0.437453
    141 O3         67.1246   63.7040   52.5516 S1         2 LUT     -0.547129
    142 C4         67.8858   64.3475   50.3672 Z4         2 LUT     -0.468603
    143 C5         68.5098   63.8501   49.1163 Z5         2 LUT      0.279246
    144 C6         69.5074   62.8843   49.1184 Z6         2 LUT     -0.305473
    145 C7         69.9767   62.2525   47.8894 Z7         2 LUT      0.069402
    146 C8         71.0454   62.7035   47.1416 Z8         2 LUT     -0.191631
    147 C9         71.6199   62.2683   45.8823 Z9         2 LUT      0.196698
    148 C10        72.6190   62.9975   45.3060 Y1         2 LUT     -0.208611
    149 C11        73.1951   62.6936   44.0472 Y2         2 LUT      0.030784
    150 C12        74.2451   63.4281   43.5925 Y3         2 LUT     -0.220316
    151 C13        75.1645   63.2673   42.4723 Y4         2 LUT      0.215937
    152 C14        76.2987   64.0656   42.3988 Y5         2 LUT     -0.185793
    153 C15        77.3437   64.1272   41.4978 Y6         2 LUT     -0.057835
    154 C16        69.9292   60.4520   50.2426 Y7         2 LUT     -0.405615
    155 C17        70.8915   62.6157   51.1169 Y7         2 LUT     -0.405615
    156 C18        67.9327   64.4900   47.9066 Y9         2 LUT     -0.369639
    157 C19        70.9756   61.0807   45.3104 W1         2 LUT     -0.333362
    158 C20        74.7571   62.5108   41.2805 W2         2 LUT     -0.323439
    159 C21        88.9232   65.3409   35.4786 Z1         2 LUT      0.406104
    160 C22        89.4939   64.6741   34.2399 Z2         2 LUT     -0.404965
    161 C23        89.7086   65.5753   33.0779 Z3         2 LUT      0.391255
    162 O23        90.1653   64.6478   32.0977 S1         2 LUT     -0.528210
    163 C24        88.4360   66.4188   32.8848 W6         2 LUT     -0.258361
    164 C25        87.4651   66.5251   33.7756 Z5         2 LUT      0.133546
    165 C26        87.4303   65.7025   35.0755 W8         2 LUT     -0.147008
    166 C27        86.5433   66.4039   36.1358 Z7         2 LUT      0.023843
    167 C28        85.3139   65.9245   36.5946 Z8         2 LUT     -0.216987
    168 C29        84.5589   66.3420   37.7646 Z9         2 LUT      0.206524
    169 C30        83.6051   65.5098   38.1814 Y1         2 LUT     -0.215556
    170 C31        82.8402   65.6787   39.3156 Y2         2 LUT      0.025142
    171 C32        81.5827   65.0967   39.6820 Y3         2 LUT     -0.212209
    172 C33        80.7716   65.5032   40.7318 Y4         2 LUT      0.240937
    173 C34        79.4966   64.8757   40.7623 Y5         2 LUT     -0.218862
    174 C35        78.4582   64.9141   41.6375 Y6         2 LUT     -0.023547
    175 C36        89.7698   66.5358   35.8870 Y7         2 LUT     -0.393485
    176 C37        88.8732   64.2376   36.5868 Y7         2 LUT     -0.393485
    177 C38        86.2179   67.3922   33.4419 Y9         2 LUT     -0.387526
    178 C39        84.9569   67.5644   38.5066 W1         2 LUT     -0.322618
    179 C40        81.1713   66.6307   41.6504 W2         2 LUT     -0.358472
    180 H403       82.0458   66.3110   42.2752 R7         2 LUT      0.097720
    181 H402       81.4683   67.5725   41.1368 R7         2 LUT      0.097720
    182 H401       80.4501   66.8760   42.3550 R7         2 LUT      0.097720
    183 H393       85.4192   68.2800   37.8488 R4         2 LUT      0.082505
    184 H392       84.0548   68.0908   38.8740 R4         2 LUT      0.082505
    185 H391       85.5032   67.3115   39.3113 R4         2 LUT      0.082505
    186 H383       85.2450   66.8818   33.6878 R1         2 LUT      0.104030
    187 H382       86.3156   68.4236   33.8757 R1         2 LUT      0.104030
    188 H381       86.1704   67.5231   32.3629 R1         2 LUT      0.104030
    189 H373       89.8094   63.9531   36.8831 T4         2 LUT      0.089537
    190 H372       88.3148   64.7212   37.4964 T4         2 LUT      0.089537
    191 H371       88.2874   63.3875   36.2269 T4         2 LUT      0.089537
    192 H363       90.8293   66.2395   36.0070 T4         2 LUT      0.089537
    193 H362       89.8343   67.3627   35.1919 T4         2 LUT      0.089537
    194 H361       89.4664   66.9492   36.7954 T4         2 LUT      0.089537
    195 H222       90.4676   64.2173   34.4723 U2         2 LUT      0.127376
    196 H221       88.7792   63.9374   33.8975 U2         2 LUT      0.127376
    197 H203       73.7939   62.9344   41.1704 R7         2 LUT      0.087068
    198 H202       75.2090   62.7757   40.3473 R7         2 LUT      0.087068
    199 H201       74.7899   61.4263   41.3905 R7         2 LUT      0.087068
    200 H193       69.9951   61.4753   45.1378 R4         2 LUT      0.089716
    201 H192       71.2880   60.7189   44.4097 R4         2 LUT      0.089716
    202 H191       70.9417   60.3273   46.0733 R4         2 LUT      0.089716
    203 H183       68.3752   64.0074   47.0504 R1         2 LUT      0.094572
    204 H182       66.8805   64.3374   47.8430 R1         2 LUT      0.094572
    205 H181       68.3040   65.5392   47.8919 R1         2 LUT      0.094572
    206 H173       70.5476   63.6041   51.4410 T4         2 LUT      0.093752
    207 H172       71.2534   62.0093   51.9935 T4         2 LUT      0.093752
    208 H171       71.7482   62.6513   50.4419 T4         2 LUT      0.093752
    209 H163       70.1596   60.0688   51.2504 T4         2 LUT      0.093752
    210 H162       69.1264   59.8153   49.8617 T4         2 LUT      0.093752
    211 H161       70.8213   60.3675   49.6459 T4         2 LUT      0.093752
    212 HO3        66.5728   63.0652   53.0576 Q1         2 LUT      0.300121
    213 H8         71.5354   63.6237   47.4638 U7         2 LUT      0.080784
    214 H7         69.6727   61.1523   47.6619 U6         2 LUT      0.042190
    215 H42        67.0489   64.9842   50.2218 U5         2 LUT      0.145166
    216 H41        68.5741   64.9463   50.9600 U5         2 LUT      0.145166
    217 H35        78.5273   65.5780   42.5318 T3         2 LUT      0.077919
    218 H34        79.2489   64.1082   40.0084 T2         2 LUT      0.073626
    219 H32        81.2746   64.3976   38.9676 T1         2 LUT      0.092510
    220 H31        83.1437   66.4456   39.9182 U9         2 LUT      0.070048
    221 H30        83.2935   64.5664   37.6496 U8         2 LUT      0.085442
    222 H3         66.5113   62.8192   50.7578 U3         2 LUT     -0.031596
    223 H28        85.0163   65.0289   36.0405 U7         2 LUT      0.084728
    224 H27        87.0385   67.2651   36.7510 U6         2 LUT      0.087291
    225 H26        86.9558   64.8446   34.6338 Q6         2 LUT      0.075325
    226 H24        88.4968   67.0177   31.9624 Q5         2 LUT      0.094482
    227 H23        90.5730   66.1920   33.2533 U3         2 LUT     -0.024869
    228 H22        67.8944   61.1043   51.3547 U2         2 LUT      0.127376
    229 H21        68.9551   62.0215   52.4628 U2         2 LUT      0.127376
    230 H15        77.3307   63.5019   40.6375 T3         2 LUT      0.093200
    231 H14        76.4186   64.8073   43.1452 T2         2 LUT      0.068865
    232 H12        74.5317   64.2089   44.3462 T1         2 LUT      0.095507
    233 H11        72.8662   61.8113   43.5739 U9         2 LUT      0.068930
    234 H10        72.9555   63.8580   45.8199 U8         2 LUT      0.083911
    235 H1         89.8947   64.9384   31.2537 Q1         2 LUT      0.297311
@<TRIPOS>BOND
    1     6     1 1
    2     7     2 1
    3     8     3 1
    4     9     4 1
    5    11     4 1
    6    12     6 1
    7    13     9 1
    8    16     9 1
    9    25     5 1
   10    25    16 1
   11    26    10 1
   12    26    17 1
   13    27    18 1
   14    28    14 1
   15    28    19 1
   16    29    12 1
   17    30    13 1
   18    31    24 1
   19    32     1 1
   20    32    25 1
   21    33    21 1
   22    33    26 1
   23    34    22 1
   24    34    27 1
   25    35    23 1
   26    35    28 1
   27    36    12 1
   28    36    24 1
   29    37    13 1
   30    37    15 1
   31    38    31 1
   32    39    20 1
   33    39    32 1
   34    40     2 1
   35    40    33 1
   36    41     3 1
   37    41    34 1
   38    42     4 1
   39    42    35 1
   40    43    38 1
   41    44     5 1
   42    44    17 1
   43    44    39 1
   44    45    10 1
   45    45    18 1
   46    45    40 1
   47    46    19 1
   48    46    41 1
   49    47    14 1
   50    47    16 1
   51    47    42 1
   52    48    38 1
   53    49    48 1
   54    50    49 1
   55    51    50 1
   56    52    51 1
   57    53    51 1
   58    54    53 1
   59    55    54 1
   60    56    55 1
   61    57    56 1
   62    58    56 1
   63    59    58 1
   64    60    59 1
   65    61    60 1
   66    62    61 1
   67    63    61 1
   68    64    27 1
   69    64    46 1
   70    65     5 1
   71    65    10 1
   72    65    64 1
   73    65    14 1
   74    66    23 1
   75    67    23 1
   76    68    23 1
   77    69    22 1
   78    70    22 1
   79    71    22 1
   80    72    21 1
   81    73    21 1
   82    74    21 1
   83    75    20 1
   84    76    20 1
   85    77    20 1
   86    78    15 1
   87    79    15 1
   88    80    15 1
   89    81     8 1
   90    82     8 1
   91    83     8 1
   92    84     7 1
   93    85     7 1
   94    86     6 1
   95    87     6 1
   96    88     3 1
   97    89     3 1
   98    90     1 1
   99    91     1 1
  100    92    63 1
  101    93    63 1
  102    94    63 1
  103    95    62 1
  104    96    62 1
  105    97    62 1
  106    98    60 1
  107    99    60 1
  108   100    59 1
  109   101    59 1
  110   102    58 1
  111   103    58 1
  112   104    57 1
  113   105    57 1
  114   106    57 1
  115   107    55 1
  116   108    55 1
  117   109    54 1
  118   110    54 1
  119   111    53 1
  120   112    53 1
  121   113    19 1
  122   114    18 1
  123   115    17 1
  124   116     9 1
  125   117     2 1
  126   118    52 1
  127   119    52 1
  128   120    52 1
  129   121    51 1
  130   122    50 1
  131   123    50 1
  132   124    49 1
  133   125    49 1
  134   126    48 1
  135   127    48 1
  136   128    43 1
  137   129    43 1
  138   130    43 1
  139   131    39 1
  140   132    32 1
  141   133    31 1
  142   134    61 1
  143   135    56 1
  144   136    24 1
  145   137    24 1
  146   139   138 1
  147   140   139 1
  148   141   140 1
  149   142   140 1
  150   143   142 1
  151   144   138 1
  152   144   143 1
  153   145   144 1
  154   146   145 1
  155   147   146 1
  156   148   147 1
  157   149   148 1
  158   150   149 1
  159   151   150 1
  160   152   151 1
  161   153   152 1
  162   154   138 1
  163   155   138 1
  164   156   143 1
  165   157   147 1
  166   158   151 1
  167   160   159 1
  168   161   160 1
  169   162   161 1
  170   163   161 1
  171   164   163 1
  172   165   159 1
  173   165   164 1
  174   166   165 1
  175   167   166 1
  176   168   167 1
  177   169   168 1
  178   170   169 1
  179   171   170 1
  180   172   171 1
  181   173   172 1
  182   174   153 1
  183   174   173 1
  184   175   159 1
  185   176   159 1
  186   177   164 1
  187   178   168 1
  188   179   172 1
  189   180   179 1
  190   181   179 1
  191   182   179 1
  192   183   178 1
  193   184   178 1
  194   185   178 1
  195   186   177 1
  196   187   177 1
  197   188   177 1
  198   189   176 1
  199   190   176 1
  200   191   176 1
  201   192   175 1
  202   193   175 1
  203   194   175 1
  204   195   160 1
  205   196   160 1
  206   197   158 1
  207   198   158 1
  208   199   158 1
  209   200   157 1
  210   201   157 1
  211   202   157 1
  212   203   156 1
  213   204   156 1
  214   205   156 1
  215   206   155 1
  216   207   155 1
  217   208   155 1
  218   209   154 1
  219   210   154 1
  220   211   154 1
  221   212   141 1
  222   213   146 1
  223   214   145 1
  224   215   142 1
  225   216   142 1
  226   217   174 1
  227   218   173 1
  228   219   171 1
  229   220   170 1
  230   221   169 1
  231   222   140 1
  232   223   167 1
  233   224   166 1
  234   225   165 1
  235   226   163 1
  236   227   161 1
  237   228   139 1
  238   229   139 1
  239   230   153 1
  240   231   152 1
  241   232   150 1
  242   233   149 1
  243   234   148 1
  244   235   162 1
  245   65    153 1
  246   65    174 1
@<TRIPOS>SUBSTRUCTURE
      1 CLA               1 ****               0 ****  **** 
      2 LUT             138 ****               0 ****  **** 
