@<TRIPOS>MOLECULE
Cpptraj generated mol2 file.
  235   246     2     0     0
SMALL
USER_CHARGES


@<TRIPOS>ATOM
      1 CAA        80.3426   59.0507   34.1959 a2         1 CLA     -0.055900
      2 CAB        79.3806   62.2671   43.1303 c8         1 CLA     -0.148500
      3 CAC        72.7355   57.9570   41.8773 a2         1 CLA     -0.012600
      4 CAD        76.4584   55.9734   34.7768 ck         1 CLA      0.398800
      5 NA         79.1767   58.8003   37.5690 ns         1 CLA     -0.225500
      6 CBA        81.5634   58.8523   33.3363 a2         1 CLA     -0.135000
      7 CBB        80.3597   62.4822   44.0021 c0         1 CLA     -0.395200
      8 CBC        72.9665   56.4348   41.9238 a3         1 CLA     -0.037700
      9 CBD        77.8403   56.6933   34.5823 a1         1 CLA     -0.053900
     10 NB         78.7254   60.3588   40.0366 nm         1 CLA     -0.295700
     11 OBD        75.9904   55.1469   34.0015 o2         1 CLA     -0.494600
     12 CGA        82.0631   57.4399   32.9238 c4         1 CLA      0.827000
     13 CGD        78.9475   55.6899   34.2475 c4         1 CLA      0.655300
     14 ND         76.4299   57.8191   37.7950 nm         1 CLA     -0.291600
     15 CED        79.7085   53.4087   34.7937 a3         1 CLA      0.005400
     16 CHA        78.0501   57.5397   35.8568 cs         1 CLA     -0.123800
     17 CHB        80.8310   60.3413   38.7388 aa         1 CLA     -0.291900
     18 CHC        77.1115   60.5928   41.8908 aa         1 CLA     -0.090400
     19 CHD        74.3030   57.6551   39.0943 aa         1 CLA     -0.052000
     20 CMA        82.7728   58.4455   36.9663 a3         1 CLA     -0.230700
     21 CMB        81.7644   62.2150   41.0978 a3         1 CLA     -0.180800
     22 CMC        74.8030   59.8632   43.6782 a3         1 CLA     -0.134000
     23 CMD        73.5560   55.7412   36.6777 a3         1 CLA     -0.141100
     24 C1         83.0809   55.4281   33.6172 a2         1 CLA      0.023000
     25 C1A        79.1552   58.2088   36.3664 ac         1 CLA     -0.015100
     26 C1B        80.0799   60.7428   39.8731 cr         1 CLA      0.054700
     27 C1C        76.0225   59.8109   41.4671 cn         1 CLA     -0.005600
     28 C1D        75.1201   57.3098   37.9505 ap         1 CLA     -0.047300
     29 O1A        81.7947   56.9545   31.8166 o2         1 CLA     -0.610800
     30 O1D        79.6753   55.6434   33.2946 o2         1 CLA     -0.558200
     31 C2         83.7259   54.9212   34.9313 c8         1 CLA     -0.325100
     32 C2A        80.4932   58.4138   35.6280 a1         1 CLA      0.098600
     33 C2B        80.4854   61.5521   40.9930 cb         1 CLA      0.088500
     34 C2C        74.8898   59.4657   42.2471 cb         1 CLA      0.053700
     35 C2D        74.8378   56.4186   36.8422 cb         1 CLA      0.058900
     36 O2A        82.7966   56.8573   33.8922 o1         1 CLA     -0.437200
     37 O2D        79.0222   54.7187   35.2034 o1         1 CLA     -0.357600
     38 C3         84.8549   54.1697   35.1112 c5         1 CLA      0.031200
     39 C3A        81.4606   59.1568   36.5925 a1         1 CLA      0.166800
     40 C3B        79.3896   61.5586   41.8521 cb         1 CLA      0.035000
     41 C3C        74.0278   58.6535   41.4474 cb         1 CLA     -0.089900
     42 C3D        75.9106   56.4825   35.9833 cb         1 CLA     -0.035900
     43 C4         84.8377   52.7097   35.4900 a3         1 CLA     -0.053300
     44 C4A        80.4268   59.3696   37.7553 ac         1 CLA      0.001800
     45 C4B        78.3150   60.8896   41.2588 cn         1 CLA     -0.020900
     46 C4C        74.7164   58.5017   40.1703 cr         1 CLA     -0.044400
     47 C4D        76.8618   57.3465   36.6172 c6         1 CLA     -0.046000
     48 C5         86.2375   54.7196   34.6634 a2         1 CLA     -0.070400
     49 C6         86.7433   55.9301   35.4880 a2         1 CLA      0.043900
     50 C7         86.8637   55.5835   36.9570 a2         1 CLA     -0.150000
     51 C8         87.2536   56.7124   37.9812 a1         1 CLA      0.064200
     52 C9         88.6792   57.1866   37.7635 a3         1 CLA     -0.259300
     53 C10        87.0582   56.2607   39.4211 a2         1 CLA     -0.071900
     54 C11        87.5894   57.2646   40.5603 a2         1 CLA      0.014500
     55 C12        87.1819   56.7633   41.8969 a2         1 CLA     -0.112100
     56 C13        87.6617   57.5790   43.1997 a1         1 CLA      0.089200
     57 C14        89.1996   57.8693   43.1634 a3         1 CLA     -0.239100
     58 C15        87.3533   56.9233   44.5814 a2         1 CLA     -0.102200
     59 C16        85.8977   56.7264   44.9223 a2         1 CLA      0.023900
     60 C17        85.2689   58.0847   45.3227 a2         1 CLA     -0.105700
     61 C18        83.7260   58.1782   45.5207 a1         1 CLA      0.206800
     62 C19        83.3796   57.3874   46.7219 a3         1 CLA     -0.280100
     63 C20        83.2439   59.6641   45.5962 a3         1 CLA     -0.280100
     64 NC         75.8686   59.2085   40.2281 nx         1 CLA     -0.309200
     65 MG         77.4784   59.2185   38.7835 mg         1 CLA      0.895000
     66 HMD3       73.3777   55.0391   35.8070 dc         1 CLA      0.064300
     67 HMD2       73.1975   55.2708   37.5047 dc         1 CLA      0.064300
     68 HMD1       72.7645   56.5315   36.6589 dc         1 CLA      0.064300
     69 HMC3       74.7619   60.9606   43.8545 dc         1 CLA      0.052100
     70 HMC2       73.8770   59.5296   44.1154 dc         1 CLA      0.052100
     71 HMC1       75.5844   59.4665   44.2629 dc         1 CLA      0.052100
     72 HMB3       82.4232   61.5127   41.6222 dc         1 CLA      0.063600
     73 HMB2       82.1746   62.6213   40.1981 dc         1 CLA      0.063600
     74 HMB1       81.6936   63.1059   41.6622 dc         1 CLA      0.063600
     75 HMA3       82.6634   57.4973   37.4958 dc         1 CLA      0.058300
     76 HMA2       83.3035   58.3514   36.0546 dc         1 CLA      0.058300
     77 HMA1       83.4737   59.0930   37.5205 dc         1 CLA      0.058300
     78 HED3       79.5104   53.1899   33.7245 dc         1 CLA      0.079300
     79 HED2       80.7945   53.4009   34.9511 dc         1 CLA      0.079300
     80 HED1       79.3137   52.5230   35.2640 dc         1 CLA      0.079300
     81 HBC3       72.0123   55.9504   42.1368 dc         1 CLA      0.016300
     82 HBC2       73.2255   56.0192   40.9748 dc         1 CLA      0.016300
     83 HBC1       73.8843   56.3143   42.5415 dc         1 CLA      0.016300
     84 HBB2       80.1354   62.9219   44.9809 da         1 CLA      0.183000
     85 HBB1       81.4317   62.3147   43.7048 da         1 CLA      0.183000
     86 HBA2       81.6021   59.4715   32.4191 dc         1 CLA      0.029400
     87 HBA1       82.4058   59.2234   33.8484 dc         1 CLA      0.029400
     88 HAC2       72.4281   58.2890   42.8677 dc         1 CLA      0.029300
     89 HAC1       71.9295   58.1573   41.1733 dc         1 CLA      0.029300
     90 HAA2       79.5382   58.5746   33.6102 dc         1 CLA      0.028700
     91 HAA1       80.2765   60.0976   34.3824 dc         1 CLA      0.028700
     92 H203       83.7871   60.2466   46.3638 dc         1 CLA      0.065600
     93 H202       83.4752   60.0593   44.6498 dc         1 CLA      0.065600
     94 H201       82.1263   59.7879   45.7150 dc         1 CLA      0.065600
     95 H193       82.2899   57.2955   46.6166 dc         1 CLA      0.065600
     96 H192       83.7308   56.3942   46.5144 dc         1 CLA      0.065600
     97 H191       83.6763   57.7967   47.7272 dc         1 CLA      0.065600
     98 H172       85.7135   58.3927   46.2519 dc         1 CLA      0.027600
     99 H171       85.4656   58.8783   44.5872 dc         1 CLA      0.027600
    100 H162       85.3749   56.2067   44.0621 dc         1 CLA      0.002900
    101 H161       85.9264   55.9589   45.7581 dc         1 CLA      0.002900
    102 H152       87.9137   56.0256   44.4406 dc         1 CLA      0.029100
    103 H151       87.6552   57.5155   45.4736 dc         1 CLA      0.029100
    104 H143       89.7792   56.9121   42.8841 dc         1 CLA      0.063600
    105 H142       89.4887   58.5202   42.3379 dc         1 CLA      0.063600
    106 H141       89.5383   58.3265   44.0595 dc         1 CLA      0.063600
    107 H122       86.0874   56.7317   41.8840 dc         1 CLA      0.032500
    108 H121       87.5806   55.7942   41.9811 dc         1 CLA      0.032500
    109 H112       88.7087   57.3476   40.4110 dc         1 CLA      0.006600
    110 H111       87.0777   58.1617   40.2964 dc         1 CLA      0.006600
    111 H102       86.0239   56.1296   39.7055 dc         1 CLA      0.024100
    112 H101       87.4536   55.2900   39.6397 dc         1 CLA      0.024100
    113 HHD        73.3022   57.1802   39.1801 da         1 CLA      0.174300
    114 HHC        77.0420   60.9660   42.9024 da         1 CLA      0.136800
    115 HHB        81.7699   60.9192   38.6972 da         1 CLA      0.138300
    116 HBD        77.7300   57.4031   33.7626 dc         1 CLA      0.107700
    117 HAB        78.4228   62.4741   43.5759 da         1 CLA      0.155200
    118 H93        89.0384   57.2340   36.6958 dc         1 CLA      0.069500
    119 H92        88.5501   58.2342   38.0402 dc         1 CLA      0.069500
    120 H91        89.4273   56.7424   38.4026 dc         1 CLA      0.069500
    121 H8         86.5488   57.5384   37.8355 dc         1 CLA      0.029300
    122 H72        85.8368   55.2716   37.2622 dc         1 CLA      0.044400
    123 H71        87.5388   54.7864   37.0397 dc         1 CLA      0.044400
    124 H62        87.7664   56.1551   35.1733 dc         1 CLA      0.015600
    125 H61        86.0546   56.8130   35.4259 dc         1 CLA      0.015600
    126 H52        87.0157   53.9332   34.7446 dc         1 CLA      0.033200
    127 H51        86.2866   55.1286   33.6006 dc         1 CLA      0.033200
    128 H43        85.3567   52.4992   36.4346 dc         1 CLA      0.037000
    129 H42        83.8719   52.2628   35.6845 dc         1 CLA      0.037000
    130 H41        85.1454   52.1380   34.5844 dc         1 CLA      0.037000
    131 H3A        81.6817   60.1150   36.2083 dc         1 CLA      0.041100
    132 H2A        80.9298   57.4774   35.3757 dc         1 CLA      0.083100
    133 H2         83.4910   55.6442   35.6989 da         1 CLA      0.180900
    134 H18        83.3139   57.7309   44.6862 dc         1 CLA     -0.003900
    135 H13        87.1988   58.5134   43.2429 dc         1 CLA      0.019700
    136 H12        82.2571   54.7739   33.3422 dc         1 CLA      0.120400
    137 H11        83.7250   55.4896   32.7606 dc         1 CLA      0.120400
    138 C1         68.5962   61.6475   48.9151 Z1         2 LUT      0.509236
    139 C2         67.1824   61.6592   49.4649 Z2         2 LUT     -0.434695
    140 C3         66.4969   62.9380   49.7471 Z3         2 LUT      0.437453
    141 O3         66.4240   63.2696   51.1429 S1         2 LUT     -0.547129
    142 C4         66.9891   64.1349   48.8840 Z4         2 LUT     -0.468603
    143 C5         67.7902   63.7226   47.6618 Z5         2 LUT      0.279246
    144 C6         68.5689   62.5775   47.6466 Z6         2 LUT     -0.305473
    145 C7         68.9794   61.9123   46.4435 Z7         2 LUT      0.069402
    146 C8         70.0184   62.3555   45.7028 Z8         2 LUT     -0.191631
    147 C9         70.8177   61.8200   44.5215 Z9         2 LUT      0.196698
    148 C10        71.8165   62.5840   44.0350 Y1         2 LUT     -0.208611
    149 C11        72.5534   62.4627   42.8810 Y2         2 LUT      0.030784
    150 C12        73.6535   63.2588   42.6454 Y3         2 LUT     -0.220316
    151 C13        74.5884   63.2348   41.5506 Y4         2 LUT      0.215937
    152 C14        75.5945   64.1644   41.6247 Y5         2 LUT     -0.185793
    153 C15        76.8056   64.2223   40.7900 Y6         2 LUT     -0.057835
    154 C16        69.0054   60.2355   48.7180 Y7         2 LUT     -0.405615
    155 C17        69.4955   62.1156   50.0949 Y7         2 LUT     -0.405615
    156 C18        67.4218   64.5878   46.4358 Y9         2 LUT     -0.369639
    157 C19        70.1647   60.7107   43.7346 W1         2 LUT     -0.333362
    158 C20        74.2265   62.6061   40.1529 W2         2 LUT     -0.323439
    159 C21        88.8638   65.9920   35.3047 Z1         2 LUT      0.406104
    160 C22        89.5365   65.4030   34.1068 Z2         2 LUT     -0.404965
    161 C23        89.5000   66.2757   32.8277 Z3         2 LUT      0.391255
    162 O23        90.1474   65.6171   31.7532 S1         2 LUT     -0.528210
    163 C24        88.1853   66.9750   32.5987 W6         2 LUT     -0.258361
    164 C25        87.2308   67.1002   33.5398 Z5         2 LUT      0.133546
    165 C26        87.3067   66.2898   34.9108 W8         2 LUT     -0.147008
    166 C27        86.4548   66.8826   35.9907 Z7         2 LUT      0.023843
    167 C28        85.3193   66.3197   36.4469 Z8         2 LUT     -0.216987
    168 C29        84.5740   66.6971   37.6866 Z9         2 LUT      0.206524
    169 C30        83.4228   66.0775   37.9993 Y1         2 LUT     -0.215556
    170 C31        82.4516   66.1897   39.1231 Y2         2 LUT      0.025142
    171 C32        81.2629   65.5374   39.3407 Y3         2 LUT     -0.212209
    172 C33        80.2614   65.8163   40.2878 Y4         2 LUT      0.240937
    173 C34        79.0196   65.1189   40.2106 Y5         2 LUT     -0.218862
    174 C35        77.8892   65.0216   41.0969 Y6         2 LUT     -0.023547
    175 C36        89.6075   67.2801   35.6569 Y7         2 LUT     -0.393485
    176 C37        88.9261   64.9141   36.4822 Y7         2 LUT     -0.393485
    177 C38        86.1082   68.0229   33.1760 Y9         2 LUT     -0.387526
    178 C39        85.0555   67.7442   38.6190 W1         2 LUT     -0.322618
    179 C40        80.6324   66.4602   41.6075 W2         2 LUT     -0.358472
    180 H403       81.5385   66.0593   42.0552 R7         2 LUT      0.097720
    181 H402       80.8955   67.4466   41.3931 R7         2 LUT      0.097720
    182 H401       79.8085   66.4048   42.3140 R7         2 LUT      0.097720
    183 H393       86.1364   67.8939   38.4512 R4         2 LUT      0.082505
    184 H392       84.5521   68.7415   38.5984 R4         2 LUT      0.082505
    185 H391       85.0889   67.3635   39.6109 R4         2 LUT      0.082505
    186 H383       85.7443   68.4740   34.0736 R1         2 LUT      0.104030
    187 H382       86.5166   68.8386   32.4904 R1         2 LUT      0.104030
    188 H381       85.3651   67.4500   32.6417 R1         2 LUT      0.104030
    189 H373       89.9588   64.6200   36.7201 T4         2 LUT      0.089537
    190 H372       88.4243   65.3134   37.3849 T4         2 LUT      0.089537
    191 H371       88.2708   64.0348   36.2205 T4         2 LUT      0.089537
    192 H363       89.2920   68.0170   34.8911 T4         2 LUT      0.089537
    193 H362       89.3183   67.6945   36.5902 T4         2 LUT      0.089537
    194 H361       90.6725   67.3041   35.5709 T4         2 LUT      0.089537
    195 H222       90.5253   65.1838   34.3992 U2         2 LUT      0.127376
    196 H221       89.1657   64.3672   33.8612 U2         2 LUT      0.127376
    197 H203       74.6119   63.2751   39.4038 R7         2 LUT      0.087068
    198 H202       74.6316   61.5984   40.0379 R7         2 LUT      0.087068
    199 H201       73.1017   62.5168   40.1043 R7         2 LUT      0.087068
    200 H193       70.7774   60.1343   43.0238 R4         2 LUT      0.089716
    201 H192       69.8574   60.0300   44.5019 R4         2 LUT      0.089716
    202 H191       69.2430   60.9421   43.2272 R4         2 LUT      0.089716
    203 H183       67.6254   63.9682   45.5753 R1         2 LUT      0.094572
    204 H182       66.4223   65.0587   46.5123 R1         2 LUT      0.094572
    205 H181       68.1405   65.3725   46.3207 R1         2 LUT      0.094572
    206 H173       69.3554   61.5787   51.0927 T4         2 LUT      0.093752
    207 H172       70.5514   62.0157   49.8124 T4         2 LUT      0.093752
    208 H171       69.2923   63.1733   50.2971 T4         2 LUT      0.093752
    209 H163       70.0325   60.1303   48.5300 T4         2 LUT      0.093752
    210 H162       68.8037   59.5902   49.6030 T4         2 LUT      0.093752
    211 H161       68.5267   59.8331   47.8647 T4         2 LUT      0.093752
    212 HO3        65.8984   62.6393   51.6178 Q1         2 LUT      0.300121
    213 H8         70.5273   63.2086   46.1749 U7         2 LUT      0.080784
    214 H7         68.5892   60.9655   46.1436 U6         2 LUT      0.042190
    215 H42        66.1339   64.8359   48.6309 U5         2 LUT      0.145166
    216 H41        67.6003   64.6766   49.5686 U5         2 LUT      0.145166
    217 H35        77.8355   65.6342   42.0001 T3         2 LUT      0.077919
    218 H34        78.9460   64.3733   39.4350 T2         2 LUT      0.073626
    219 H32        80.9951   64.8424   38.5578 T1         2 LUT      0.092510
    220 H31        82.6430   66.9320   39.9087 U9         2 LUT      0.070048
    221 H30        83.1799   65.4093   37.1900 U8         2 LUT      0.085442
    222 H3         65.4676   62.6394   49.4735 U3         2 LUT     -0.031596
    223 H28        84.8883   65.6889   35.7063 U7         2 LUT      0.084728
    224 H27        86.9422   67.6714   36.5206 U6         2 LUT      0.087291
    225 H26        86.8871   65.3049   34.6980 Q6         2 LUT      0.075325
    226 H24        88.0645   67.5824   31.6256 Q5         2 LUT      0.094482
    227 H23        90.1578   67.1213   33.0029 U3         2 LUT     -0.024869
    228 H22        66.5511   61.1831   48.6617 U2         2 LUT      0.127376
    229 H21        67.1024   60.9567   50.2927 U2         2 LUT      0.127376
    230 H15        76.9578   63.6706   39.8935 T3         2 LUT      0.093200
    231 H14        75.5414   64.8322   42.4999 T2         2 LUT      0.068865
    232 H12        73.8202   63.9915   43.4044 T1         2 LUT      0.095507
    233 H11        72.2817   61.7632   42.1628 U9         2 LUT      0.068930
    234 H10        72.1201   63.4278   44.6228 U8         2 LUT      0.083911
    235 H1         89.5751   65.0033   31.3308 Q1         2 LUT      0.297311
@<TRIPOS>BOND
    1     6     1 1
    2     7     2 1
    3     8     3 1
    4     9     4 1
    5    11     4 1
    6    12     6 1
    7    13     9 1
    8    16     9 1
    9    25     5 1
   10    25    16 1
   11    26    10 1
   12    26    17 1
   13    27    18 1
   14    28    14 1
   15    28    19 1
   16    29    12 1
   17    30    13 1
   18    31    24 1
   19    32     1 1
   20    32    25 1
   21    33    21 1
   22    33    26 1
   23    34    22 1
   24    34    27 1
   25    35    23 1
   26    35    28 1
   27    36    12 1
   28    36    24 1
   29    37    13 1
   30    37    15 1
   31    38    31 1
   32    39    20 1
   33    39    32 1
   34    40     2 1
   35    40    33 1
   36    41     3 1
   37    41    34 1
   38    42     4 1
   39    42    35 1
   40    43    38 1
   41    44     5 1
   42    44    17 1
   43    44    39 1
   44    45    10 1
   45    45    18 1
   46    45    40 1
   47    46    19 1
   48    46    41 1
   49    47    14 1
   50    47    16 1
   51    47    42 1
   52    48    38 1
   53    49    48 1
   54    50    49 1
   55    51    50 1
   56    52    51 1
   57    53    51 1
   58    54    53 1
   59    55    54 1
   60    56    55 1
   61    57    56 1
   62    58    56 1
   63    59    58 1
   64    60    59 1
   65    61    60 1
   66    62    61 1
   67    63    61 1
   68    64    27 1
   69    64    46 1
   70    65     5 1
   71    65    10 1
   72    65    64 1
   73    65    14 1
   74    66    23 1
   75    67    23 1
   76    68    23 1
   77    69    22 1
   78    70    22 1
   79    71    22 1
   80    72    21 1
   81    73    21 1
   82    74    21 1
   83    75    20 1
   84    76    20 1
   85    77    20 1
   86    78    15 1
   87    79    15 1
   88    80    15 1
   89    81     8 1
   90    82     8 1
   91    83     8 1
   92    84     7 1
   93    85     7 1
   94    86     6 1
   95    87     6 1
   96    88     3 1
   97    89     3 1
   98    90     1 1
   99    91     1 1
  100    92    63 1
  101    93    63 1
  102    94    63 1
  103    95    62 1
  104    96    62 1
  105    97    62 1
  106    98    60 1
  107    99    60 1
  108   100    59 1
  109   101    59 1
  110   102    58 1
  111   103    58 1
  112   104    57 1
  113   105    57 1
  114   106    57 1
  115   107    55 1
  116   108    55 1
  117   109    54 1
  118   110    54 1
  119   111    53 1
  120   112    53 1
  121   113    19 1
  122   114    18 1
  123   115    17 1
  124   116     9 1
  125   117     2 1
  126   118    52 1
  127   119    52 1
  128   120    52 1
  129   121    51 1
  130   122    50 1
  131   123    50 1
  132   124    49 1
  133   125    49 1
  134   126    48 1
  135   127    48 1
  136   128    43 1
  137   129    43 1
  138   130    43 1
  139   131    39 1
  140   132    32 1
  141   133    31 1
  142   134    61 1
  143   135    56 1
  144   136    24 1
  145   137    24 1
  146   139   138 1
  147   140   139 1
  148   141   140 1
  149   142   140 1
  150   143   142 1
  151   144   138 1
  152   144   143 1
  153   145   144 1
  154   146   145 1
  155   147   146 1
  156   148   147 1
  157   149   148 1
  158   150   149 1
  159   151   150 1
  160   152   151 1
  161   153   152 1
  162   154   138 1
  163   155   138 1
  164   156   143 1
  165   157   147 1
  166   158   151 1
  167   160   159 1
  168   161   160 1
  169   162   161 1
  170   163   161 1
  171   164   163 1
  172   165   159 1
  173   165   164 1
  174   166   165 1
  175   167   166 1
  176   168   167 1
  177   169   168 1
  178   170   169 1
  179   171   170 1
  180   172   171 1
  181   173   172 1
  182   174   153 1
  183   174   173 1
  184   175   159 1
  185   176   159 1
  186   177   164 1
  187   178   168 1
  188   179   172 1
  189   180   179 1
  190   181   179 1
  191   182   179 1
  192   183   178 1
  193   184   178 1
  194   185   178 1
  195   186   177 1
  196   187   177 1
  197   188   177 1
  198   189   176 1
  199   190   176 1
  200   191   176 1
  201   192   175 1
  202   193   175 1
  203   194   175 1
  204   195   160 1
  205   196   160 1
  206   197   158 1
  207   198   158 1
  208   199   158 1
  209   200   157 1
  210   201   157 1
  211   202   157 1
  212   203   156 1
  213   204   156 1
  214   205   156 1
  215   206   155 1
  216   207   155 1
  217   208   155 1
  218   209   154 1
  219   210   154 1
  220   211   154 1
  221   212   141 1
  222   213   146 1
  223   214   145 1
  224   215   142 1
  225   216   142 1
  226   217   174 1
  227   218   173 1
  228   219   171 1
  229   220   170 1
  230   221   169 1
  231   222   140 1
  232   223   167 1
  233   224   166 1
  234   225   165 1
  235   226   163 1
  236   227   161 1
  237   228   139 1
  238   229   139 1
  239   230   153 1
  240   231   152 1
  241   232   150 1
  242   233   149 1
  243   234   148 1
  244   235   162 1
  245   65    153 1
  246   65    174 1
@<TRIPOS>SUBSTRUCTURE
      1 CLA               1 ****               0 ****  **** 
      2 LUT             138 ****               0 ****  **** 
