@<TRIPOS>MOLECULE
Cpptraj generated mol2 file.
  235   246     2     0     0
SMALL
USER_CHARGES


@<TRIPOS>ATOM
      1 CAA        80.1412   57.8396   34.7185 a2         1 CLA     -0.055900
      2 CAB        79.6329   62.0921   43.3641 c8         1 CLA     -0.148500
      3 CAC        72.7489   58.2130   42.9303 a2         1 CLA     -0.012600
      4 CAD        75.5861   55.5135   35.5533 ck         1 CLA      0.398800
      5 NA         78.7846   58.2950   37.9945 ns         1 CLA     -0.225500
      6 CBA        81.4233   57.4314   33.9623 a2         1 CLA     -0.135000
      7 CBB        80.7171   62.2004   44.1500 c0         1 CLA     -0.395200
      8 CBC        72.8931   56.7250   43.3209 a3         1 CLA     -0.037700
      9 CBD        77.1567   55.9352   35.3724 a1         1 CLA     -0.053900
     10 NB         78.5612   60.0438   40.4895 nm         1 CLA     -0.295700
     11 OBD        75.0135   54.6605   34.8573 o2         1 CLA     -0.494600
     12 CGA        81.6969   56.0341   33.5955 c4         1 CLA      0.827000
     13 CGD        78.0802   54.6816   35.3337 c4         1 CLA      0.655300
     14 ND         75.9160   57.5957   38.3763 nm         1 CLA     -0.291600
     15 CED        78.2996   52.4086   36.2547 a3         1 CLA      0.005400
     16 CHA        77.4211   56.9290   36.5145 cs         1 CLA     -0.123800
     17 CHB        80.5417   59.6965   39.0156 aa         1 CLA     -0.291900
     18 CHC        77.1987   60.4366   42.4919 aa         1 CLA     -0.090400
     19 CHD        74.0218   57.6276   39.9250 aa         1 CLA     -0.052000
     20 CMA        82.1752   57.4088   37.6183 a3         1 CLA     -0.230700
     21 CMB        81.9719   61.5847   41.0534 a3         1 CLA     -0.180800
     22 CMC        74.8106   60.1739   44.3475 a3         1 CLA     -0.134000
     23 CMD        72.7368   55.6041   37.7675 a3         1 CLA     -0.141100
     24 C1         82.5951   54.0187   34.6848 a2         1 CLA      0.023000
     25 C1A        78.6634   57.5750   36.8199 ac         1 CLA     -0.015100
     26 C1B        79.8727   60.2056   40.1281 cr         1 CLA      0.054700
     27 C1C        76.0194   59.8037   42.1596 cn         1 CLA     -0.005600
     28 C1D        74.6069   57.2789   38.6879 ap         1 CLA     -0.047300
     29 O1A        81.3013   55.3984   32.6401 o2         1 CLA     -0.610800
     30 O1D        79.0501   54.5076   34.5696 o2         1 CLA     -0.558200
     31 C2         83.5488   53.7975   35.8640 c8         1 CLA     -0.325100
     32 C2A        80.0141   57.3311   36.1224 a1         1 CLA      0.098600
     33 C2B        80.4643   61.1466   41.0732 cb         1 CLA      0.088500
     34 C2C        74.8518   59.6459   42.9333 cb         1 CLA      0.053700
     35 C2D        74.0685   56.3244   37.6809 cb         1 CLA      0.058900
     36 O2A        82.3652   55.4488   34.6299 o1         1 CLA     -0.437200
     37 O2D        77.6234   53.7290   36.2551 o1         1 CLA     -0.357600
     38 C3         84.8859   53.9784   35.8771 c5         1 CLA      0.031200
     39 C3A        81.0113   58.2099   37.0075 a1         1 CLA      0.166800
     40 C3B        79.5264   61.3568   42.0726 cb         1 CLA      0.035000
     41 C3C        73.9880   58.7835   42.2616 cb         1 CLA     -0.089900
     42 C3D        75.1865   56.1645   36.7500 cb         1 CLA     -0.035900
     43 C4         85.9301   52.8338   35.6620 a3         1 CLA     -0.053300
     44 C4A        80.0610   58.7808   38.0862 ac         1 CLA      0.001800
     45 C4B        78.3659   60.6123   41.7062 cn         1 CLA     -0.020900
     46 C4C        74.5436   58.4767   40.9721 cr         1 CLA     -0.044400
     47 C4D        76.2500   56.9726   37.2077 c6         1 CLA     -0.046000
     48 C5         85.4810   55.3435   36.1942 a2         1 CLA     -0.070400
     49 C6         85.5693   55.5369   37.7369 a2         1 CLA      0.043900
     50 C7         85.8979   57.0299   38.0203 a2         1 CLA     -0.150000
     51 C8         87.4155   57.3485   38.0779 a1         1 CLA      0.064200
     52 C9         88.3069   56.9050   36.8616 a3         1 CLA     -0.259300
     53 C10        88.1883   56.8931   39.3623 a2         1 CLA     -0.071900
     54 C11        87.9615   57.8713   40.5678 a2         1 CLA      0.014500
     55 C12        88.6314   57.0744   41.7302 a2         1 CLA     -0.112100
     56 C13        88.7459   57.8880   43.0421 a1         1 CLA      0.089200
     57 C14        89.6391   57.1704   44.1391 a3         1 CLA     -0.239100
     58 C15        87.2577   58.0434   43.4679 a2         1 CLA     -0.102200
     59 C16        86.9626   58.7043   44.8010 a2         1 CLA      0.023900
     60 C17        85.5870   59.4071   44.7831 a2         1 CLA     -0.105700
     61 C18        85.0071   59.7436   46.2485 a1         1 CLA      0.206800
     62 C19        85.9770   60.6592   46.9465 a3         1 CLA     -0.280100
     63 C20        83.5719   60.1715   46.1970 a3         1 CLA     -0.280100
     64 NC         75.7945   59.1083   40.9082 nx         1 CLA     -0.309200
     65 MG         77.1573   58.9251   39.3820 mg         1 CLA      0.895000
     66 HMD3       71.8768   56.2398   37.7281 dc         1 CLA      0.064300
     67 HMD2       72.7037   54.8616   36.9340 dc         1 CLA      0.064300
     68 HMD1       72.7646   55.1092   38.6744 dc         1 CLA      0.064300
     69 HMC3       74.9856   61.2547   44.3234 dc         1 CLA      0.052100
     70 HMC2       73.8066   59.9436   44.7106 dc         1 CLA      0.052100
     71 HMC1       75.6745   59.7608   44.8822 dc         1 CLA      0.052100
     72 HMB3       82.5184   60.7624   41.4808 dc         1 CLA      0.063600
     73 HMB2       82.2309   61.7100   40.0080 dc         1 CLA      0.063600
     74 HMB1       81.9493   62.4865   41.6280 dc         1 CLA      0.063600
     75 HMA3       82.8115   58.0232   38.2914 dc         1 CLA      0.058300
     76 HMA2       81.7761   56.5198   38.1228 dc         1 CLA      0.058300
     77 HMA1       82.9288   57.0453   36.9439 dc         1 CLA      0.058300
     78 HED3       78.0917   51.9104   35.2960 dc         1 CLA      0.079300
     79 HED2       79.3759   52.5822   36.3970 dc         1 CLA      0.079300
     80 HED1       77.8013   51.7709   37.0304 dc         1 CLA      0.079300
     81 HBC3       73.1153   56.2571   42.4163 dc         1 CLA      0.016300
     82 HBC2       73.6756   56.6996   44.0452 dc         1 CLA      0.016300
     83 HBC1       71.9977   56.4144   43.7494 dc         1 CLA      0.016300
     84 HBB2       80.6924   62.7011   45.1060 da         1 CLA      0.183000
     85 HBB1       81.7062   61.8219   43.8729 da         1 CLA      0.183000
     86 HBA2       81.3603   57.9038   32.9361 dc         1 CLA      0.029400
     87 HBA1       82.2113   57.9380   34.4547 dc         1 CLA      0.029400
     88 HAC2       72.4003   58.7772   43.7917 dc         1 CLA      0.029300
     89 HAC1       71.9552   58.2581   42.1620 dc         1 CLA      0.029300
     90 HAA2       79.3106   57.4350   34.1876 dc         1 CLA      0.028700
     91 HAA1       80.0461   58.9280   34.6959 dc         1 CLA      0.028700
     92 H203       82.9985   59.3663   45.6832 dc         1 CLA      0.065600
     93 H202       83.3114   60.2912   47.2784 dc         1 CLA      0.065600
     94 H201       83.3451   61.0807   45.6378 dc         1 CLA      0.065600
     95 H193       86.2775   61.5444   46.3697 dc         1 CLA      0.065600
     96 H192       85.5570   61.0348   47.8024 dc         1 CLA      0.065600
     97 H191       86.8990   60.1540   47.1352 dc         1 CLA      0.065600
     98 H172       85.6750   60.1906   43.9669 dc         1 CLA      0.027600
     99 H171       84.8600   58.5655   44.4367 dc         1 CLA      0.027600
    100 H162       87.0198   58.0412   45.6379 dc         1 CLA      0.002900
    101 H161       87.6490   59.4955   44.8606 dc         1 CLA      0.002900
    102 H152       86.7469   58.6006   42.7096 dc         1 CLA      0.029100
    103 H151       86.8896   57.0196   43.5535 dc         1 CLA      0.029100
    104 H143       89.3372   56.1384   44.1057 dc         1 CLA      0.063600
    105 H142       90.7120   57.1688   43.9812 dc         1 CLA      0.063600
    106 H141       89.4904   57.5938   45.1613 dc         1 CLA      0.063600
    107 H122       88.2677   56.0315   41.8787 dc         1 CLA      0.032500
    108 H121       89.6950   57.0055   41.4529 dc         1 CLA      0.032500
    109 H112       88.3701   58.8525   40.4253 dc         1 CLA      0.006600
    110 H111       86.9161   57.9462   40.8061 dc         1 CLA      0.006600
    111 H102       87.8314   55.9019   39.6914 dc         1 CLA      0.024100
    112 H101       89.2214   56.6975   39.1069 dc         1 CLA      0.024100
    113 HHD        73.0424   57.1274   40.0615 da         1 CLA      0.174300
    114 HHC        77.1547   60.7843   43.5460 da         1 CLA      0.136800
    115 HHB        81.6002   59.7324   38.9533 da         1 CLA      0.138300
    116 HBD        77.1504   56.5118   34.4341 dc         1 CLA      0.107700
    117 HAB        78.7185   62.6351   43.6525 da         1 CLA      0.155200
    118 H93        88.3802   55.8111   36.7931 dc         1 CLA      0.069500
    119 H92        87.7945   57.3030   35.9761 dc         1 CLA      0.069500
    120 H91        89.3261   57.2578   36.9493 dc         1 CLA      0.069500
    121 H8         87.4781   58.3975   38.0406 dc         1 CLA      0.029300
    122 H72        85.3356   57.5643   37.2458 dc         1 CLA      0.044400
    123 H71        85.4044   57.3418   38.9313 dc         1 CLA      0.044400
    124 H62        84.6233   55.3613   38.2142 dc         1 CLA      0.015600
    125 H61        86.3351   54.9006   38.2083 dc         1 CLA      0.015600
    126 H52        86.4720   55.2658   35.6958 dc         1 CLA      0.033200
    127 H51        84.9727   56.1609   35.6805 dc         1 CLA      0.033200
    128 H43        85.5403   51.8182   35.7943 dc         1 CLA      0.037000
    129 H42        86.2787   52.8573   34.6026 dc         1 CLA      0.037000
    130 H41        86.6925   52.9437   36.4403 dc         1 CLA      0.037000
    131 H3A        81.5639   59.0670   36.4591 dc         1 CLA      0.041100
    132 H2A        80.3141   56.2757   36.0860 dc         1 CLA      0.083100
    133 H2         83.1101   53.5833   36.8161 da         1 CLA      0.180900
    134 H18        84.9658   58.7729   46.8238 dc         1 CLA     -0.003900
    135 H13        89.2216   58.8432   43.0060 dc         1 CLA      0.019700
    136 H12        81.6607   53.4411   34.7547 dc         1 CLA      0.120400
    137 H11        82.9617   53.6744   33.7283 dc         1 CLA      0.120400
    138 C1         70.6136   62.1707   50.3138 Z1         2 LUT      0.509236
    139 C2         69.3168   61.6690   51.0464 Z2         2 LUT     -0.434695
    140 C3         68.3273   62.7126   51.5416 Z3         2 LUT      0.437453
    141 O3         68.6624   63.1476   52.8916 S1         2 LUT     -0.547129
    142 C4         68.3141   63.9528   50.7635 Z4         2 LUT     -0.468603
    143 C5         68.9946   63.8618   49.4594 Z5         2 LUT      0.279246
    144 C6         70.0787   63.1142   49.2130 Z6         2 LUT     -0.305473
    145 C7         70.5523   62.6550   47.9005 Z7         2 LUT      0.069402
    146 C8         71.3611   63.3088   47.0355 Z8         2 LUT     -0.191631
    147 C9         71.8153   62.7459   45.7722 Z9         2 LUT      0.196698
    148 C10        72.6697   63.5447   44.9857 Y1         2 LUT     -0.208611
    149 C11        73.1600   63.3211   43.6863 Y2         2 LUT      0.030784
    150 C12        74.2408   64.0030   43.1709 Y3         2 LUT     -0.220316
    151 C13        75.0276   63.6201   42.0247 Y4         2 LUT      0.215937
    152 C14        76.2738   64.2645   42.0296 Y5         2 LUT     -0.185793
    153 C15        77.3048   64.1362   41.1172 Y6         2 LUT     -0.057835
    154 C16        71.5149   61.0189   49.9456 Y7         2 LUT     -0.405615
    155 C17        71.3776   63.0626   51.3744 Y7         2 LUT     -0.405615
    156 C18        68.1031   64.4732   48.3749 Y9         2 LUT     -0.369639
    157 C19        71.0069   61.5210   45.2923 W1         2 LUT     -0.333362
    158 C20        74.5563   62.6476   40.9011 W2         2 LUT     -0.323439
    159 C21        88.6381   65.0497   35.3739 Z1         2 LUT      0.406104
    160 C22        89.3878   64.3407   34.1784 Z2         2 LUT     -0.404965
    161 C23        89.6546   65.1444   32.9363 Z3         2 LUT      0.391255
    162 O23        89.7573   64.2709   31.8182 S1         2 LUT     -0.528210
    163 C24        88.4647   66.0417   32.6318 W6         2 LUT     -0.258361
    164 C25        87.4034   66.1843   33.4149 Z5         2 LUT      0.133546
    165 C26        87.2860   65.5335   34.7834 W8         2 LUT     -0.147008
    166 C27        86.4865   66.3113   35.7860 Z7         2 LUT      0.023843
    167 C28        85.4019   65.9164   36.5010 Z8         2 LUT     -0.216987
    168 C29        84.7180   66.4170   37.7009 Z9         2 LUT      0.206524
    169 C30        83.7183   65.6163   38.1946 Y1         2 LUT     -0.215556
    170 C31        82.9520   65.8640   39.4403 Y2         2 LUT      0.025142
    171 C32        81.8943   65.0507   39.6784 Y3         2 LUT     -0.212209
    172 C33        80.8626   65.2268   40.7058 Y4         2 LUT      0.240937
    173 C34        79.6479   64.5313   40.5536 Y5         2 LUT     -0.218862
    174 C35        78.5524   64.6791   41.4640 Y6         2 LUT     -0.023547
    175 C36        89.5047   66.2506   35.8776 Y7         2 LUT     -0.393485
    176 C37        88.6572   64.0443   36.5435 Y7         2 LUT     -0.393485
    177 C38        86.1917   67.0250   32.9541 Y9         2 LUT     -0.387526
    178 C39        85.3342   67.5636   38.5312 W1         2 LUT     -0.322618
    179 C40        81.2756   65.7455   42.0838 W2         2 LUT     -0.358472
    180 H403       80.6938   66.6687   42.2704 R7         2 LUT      0.097720
    181 H402       81.0194   65.0047   42.8489 R7         2 LUT      0.097720
    182 H401       82.3163   65.9950   42.1504 R7         2 LUT      0.097720
    183 H393       85.4079   67.3074   39.5596 R4         2 LUT      0.082505
    184 H392       86.2883   67.9582   38.1123 R4         2 LUT      0.082505
    185 H391       84.7025   68.4475   38.5104 R4         2 LUT      0.082505
    186 H383       86.0491   67.9008   33.6703 R1         2 LUT      0.104030
    187 H382       86.4164   67.4977   31.9678 R1         2 LUT      0.104030
    188 H381       85.2676   66.4950   32.9468 R1         2 LUT      0.104030
    189 H373       88.5603   62.9832   36.2174 T4         2 LUT      0.089537
    190 H372       89.5451   63.9950   37.1967 T4         2 LUT      0.089537
    191 H371       87.8772   64.2622   37.2582 T4         2 LUT      0.089537
    192 H363       90.5182   65.9028   36.2452 T4         2 LUT      0.089537
    193 H362       89.7466   66.9643   35.0628 T4         2 LUT      0.089537
    194 H361       89.1326   66.6563   36.7931 T4         2 LUT      0.089537
    195 H222       90.3369   63.9963   34.5468 U2         2 LUT      0.127376
    196 H221       88.7262   63.4889   33.8990 U2         2 LUT      0.127376
    197 H203       75.3915   62.1429   40.4367 R7         2 LUT      0.087068
    198 H202       73.9494   61.9264   41.2988 R7         2 LUT      0.087068
    199 H201       73.8592   63.0160   40.1352 R7         2 LUT      0.087068
    200 H193       69.9085   61.5875   45.3361 R4         2 LUT      0.089716
    201 H192       71.2240   61.1184   44.2857 R4         2 LUT      0.089716
    202 H191       71.2223   60.7484   46.0004 R4         2 LUT      0.089716
    203 H183       68.1804   65.5171   48.6488 R1         2 LUT      0.094572
    204 H182       68.2702   64.3877   47.3638 R1         2 LUT      0.094572
    205 H181       67.0773   64.1986   48.5932 R1         2 LUT      0.094572
    206 H173       70.8726   63.9545   51.7352 T4         2 LUT      0.093752
    207 H172       71.8260   62.5359   52.2654 T4         2 LUT      0.093752
    208 H171       72.3450   63.4076   50.9411 T4         2 LUT      0.093752
    209 H163       72.4061   61.3176   49.3822 T4         2 LUT      0.093752
    210 H162       71.9356   60.5933   50.8913 T4         2 LUT      0.093752
    211 H161       71.0476   60.1941   49.3833 T4         2 LUT      0.093752
    212 HO3        68.3544   62.5199   53.5264 Q1         2 LUT      0.300121
    213 H8         71.4816   64.3085   47.2740 U7         2 LUT      0.080784
    214 H7         70.2300   61.6112   47.7903 U6         2 LUT      0.042190
    215 H42        67.2231   64.1678   50.5983 U5         2 LUT      0.145166
    216 H41        68.6422   64.8554   51.2770 U5         2 LUT      0.145166
    217 H35        78.7633   65.1231   42.3910 T3         2 LUT      0.077919
    218 H34        79.5085   64.0193   39.5777 T2         2 LUT      0.073626
    219 H32        81.6235   64.2682   39.0075 T1         2 LUT      0.092510
    220 H31        83.2219   66.6278   40.0711 U9         2 LUT      0.070048
    221 H30        83.3887   64.7667   37.5782 U8         2 LUT      0.085442
    222 H3         67.3539   62.2833   51.3056 U3         2 LUT     -0.031596
    223 H28        84.8612   64.9277   36.1414 U7         2 LUT      0.084728
    224 H27        87.0237   67.1315   36.1852 U6         2 LUT      0.087291
    225 H26        86.6676   64.6585   34.5874 Q6         2 LUT      0.075325
    226 H24        88.4006   66.5033   31.6236 Q5         2 LUT      0.094482
    227 H23        90.4817   65.8979   32.9956 U3         2 LUT     -0.024869
    228 H22        68.7653   61.0199   50.2917 U2         2 LUT      0.127376
    229 H21        69.7116   61.0007   51.9121 U2         2 LUT      0.127376
    230 H15        77.1684   63.6721   40.1492 T3         2 LUT      0.093200
    231 H14        76.4250   65.1161   42.6688 T2         2 LUT      0.068865
    232 H12        74.6898   64.7685   43.8714 T1         2 LUT      0.095507
    233 H11        72.9322   62.3670   43.1702 U9         2 LUT      0.068930
    234 H10        73.2614   64.3845   45.3767 U8         2 LUT      0.083911
    235 H1         90.1866   64.6615   31.0712 Q1         2 LUT      0.297311
@<TRIPOS>BOND
    1     6     1 1
    2     7     2 1
    3     8     3 1
    4     9     4 1
    5    11     4 1
    6    12     6 1
    7    13     9 1
    8    16     9 1
    9    25     5 1
   10    25    16 1
   11    26    10 1
   12    26    17 1
   13    27    18 1
   14    28    14 1
   15    28    19 1
   16    29    12 1
   17    30    13 1
   18    31    24 1
   19    32     1 1
   20    32    25 1
   21    33    21 1
   22    33    26 1
   23    34    22 1
   24    34    27 1
   25    35    23 1
   26    35    28 1
   27    36    12 1
   28    36    24 1
   29    37    13 1
   30    37    15 1
   31    38    31 1
   32    39    20 1
   33    39    32 1
   34    40     2 1
   35    40    33 1
   36    41     3 1
   37    41    34 1
   38    42     4 1
   39    42    35 1
   40    43    38 1
   41    44     5 1
   42    44    17 1
   43    44    39 1
   44    45    10 1
   45    45    18 1
   46    45    40 1
   47    46    19 1
   48    46    41 1
   49    47    14 1
   50    47    16 1
   51    47    42 1
   52    48    38 1
   53    49    48 1
   54    50    49 1
   55    51    50 1
   56    52    51 1
   57    53    51 1
   58    54    53 1
   59    55    54 1
   60    56    55 1
   61    57    56 1
   62    58    56 1
   63    59    58 1
   64    60    59 1
   65    61    60 1
   66    62    61 1
   67    63    61 1
   68    64    27 1
   69    64    46 1
   70    65     5 1
   71    65    10 1
   72    65    64 1
   73    65    14 1
   74    66    23 1
   75    67    23 1
   76    68    23 1
   77    69    22 1
   78    70    22 1
   79    71    22 1
   80    72    21 1
   81    73    21 1
   82    74    21 1
   83    75    20 1
   84    76    20 1
   85    77    20 1
   86    78    15 1
   87    79    15 1
   88    80    15 1
   89    81     8 1
   90    82     8 1
   91    83     8 1
   92    84     7 1
   93    85     7 1
   94    86     6 1
   95    87     6 1
   96    88     3 1
   97    89     3 1
   98    90     1 1
   99    91     1 1
  100    92    63 1
  101    93    63 1
  102    94    63 1
  103    95    62 1
  104    96    62 1
  105    97    62 1
  106    98    60 1
  107    99    60 1
  108   100    59 1
  109   101    59 1
  110   102    58 1
  111   103    58 1
  112   104    57 1
  113   105    57 1
  114   106    57 1
  115   107    55 1
  116   108    55 1
  117   109    54 1
  118   110    54 1
  119   111    53 1
  120   112    53 1
  121   113    19 1
  122   114    18 1
  123   115    17 1
  124   116     9 1
  125   117     2 1
  126   118    52 1
  127   119    52 1
  128   120    52 1
  129   121    51 1
  130   122    50 1
  131   123    50 1
  132   124    49 1
  133   125    49 1
  134   126    48 1
  135   127    48 1
  136   128    43 1
  137   129    43 1
  138   130    43 1
  139   131    39 1
  140   132    32 1
  141   133    31 1
  142   134    61 1
  143   135    56 1
  144   136    24 1
  145   137    24 1
  146   139   138 1
  147   140   139 1
  148   141   140 1
  149   142   140 1
  150   143   142 1
  151   144   138 1
  152   144   143 1
  153   145   144 1
  154   146   145 1
  155   147   146 1
  156   148   147 1
  157   149   148 1
  158   150   149 1
  159   151   150 1
  160   152   151 1
  161   153   152 1
  162   154   138 1
  163   155   138 1
  164   156   143 1
  165   157   147 1
  166   158   151 1
  167   160   159 1
  168   161   160 1
  169   162   161 1
  170   163   161 1
  171   164   163 1
  172   165   159 1
  173   165   164 1
  174   166   165 1
  175   167   166 1
  176   168   167 1
  177   169   168 1
  178   170   169 1
  179   171   170 1
  180   172   171 1
  181   173   172 1
  182   174   153 1
  183   174   173 1
  184   175   159 1
  185   176   159 1
  186   177   164 1
  187   178   168 1
  188   179   172 1
  189   180   179 1
  190   181   179 1
  191   182   179 1
  192   183   178 1
  193   184   178 1
  194   185   178 1
  195   186   177 1
  196   187   177 1
  197   188   177 1
  198   189   176 1
  199   190   176 1
  200   191   176 1
  201   192   175 1
  202   193   175 1
  203   194   175 1
  204   195   160 1
  205   196   160 1
  206   197   158 1
  207   198   158 1
  208   199   158 1
  209   200   157 1
  210   201   157 1
  211   202   157 1
  212   203   156 1
  213   204   156 1
  214   205   156 1
  215   206   155 1
  216   207   155 1
  217   208   155 1
  218   209   154 1
  219   210   154 1
  220   211   154 1
  221   212   141 1
  222   213   146 1
  223   214   145 1
  224   215   142 1
  225   216   142 1
  226   217   174 1
  227   218   173 1
  228   219   171 1
  229   220   170 1
  230   221   169 1
  231   222   140 1
  232   223   167 1
  233   224   166 1
  234   225   165 1
  235   226   163 1
  236   227   161 1
  237   228   139 1
  238   229   139 1
  239   230   153 1
  240   231   152 1
  241   232   150 1
  242   233   149 1
  243   234   148 1
  244   235   162 1
  245   65    153 1
  246   65    174 1
@<TRIPOS>SUBSTRUCTURE
      1 CLA               1 ****               0 ****  **** 
      2 LUT             138 ****               0 ****  **** 
