@<TRIPOS>MOLECULE
Cpptraj generated mol2 file.
  235   246     2     0     0
SMALL
USER_CHARGES


@<TRIPOS>ATOM
      1 CAA        79.5529   58.1605   35.1326 a2         1 CLA     -0.055900
      2 CAB        80.0972   62.3770   43.7761 c8         1 CLA     -0.148500
      3 CAC        72.9120   58.3302   43.7509 a2         1 CLA     -0.012600
      4 CAD        75.6331   55.5712   36.5257 ck         1 CLA      0.398800
      5 NA         78.8147   58.5668   38.5518 ns         1 CLA     -0.225500
      6 CBA        80.7479   58.0046   34.1887 a2         1 CLA     -0.135000
      7 CBB        79.5942   62.0270   44.9796 c0         1 CLA     -0.395200
      8 CBC        73.1862   56.8706   44.0596 a3         1 CLA     -0.037700
      9 CBD        77.0796   56.0210   36.1039 a1         1 CLA     -0.053900
     10 NB         78.6640   60.3438   40.9877 nm         1 CLA     -0.295700
     11 OBD        74.9847   54.6544   36.0291 o2         1 CLA     -0.494600
     12 CGA        81.4187   56.5486   34.0048 c4         1 CLA      0.827000
     13 CGD        77.9954   54.7419   36.1041 c4         1 CLA      0.655300
     14 ND         75.9391   57.8154   39.1989 nm         1 CLA     -0.291600
     15 CED        78.8242   53.0483   37.7449 a3         1 CLA      0.005400
     16 CHA        77.4128   57.0534   37.2369 cs         1 CLA     -0.123800
     17 CHB        80.5307   60.0917   39.3698 aa         1 CLA     -0.291900
     18 CHC        77.3561   60.7839   43.0114 aa         1 CLA     -0.090400
     19 CHD        74.0726   57.8353   40.8172 aa         1 CLA     -0.052000
     20 CMA        81.9735   57.6986   38.0126 a3         1 CLA     -0.230700
     21 CMB        82.0845   61.8183   41.3360 a3         1 CLA     -0.180800
     22 CMC        75.1618   60.2765   45.1658 a3         1 CLA     -0.134000
     23 CMD        72.7060   55.9076   38.4819 a3         1 CLA     -0.141100
     24 C1         82.5756   54.7811   35.1171 a2         1 CLA      0.023000
     25 C1A        78.5780   57.7970   37.3866 ac         1 CLA     -0.015100
     26 C1B        79.9429   60.6041   40.5414 cr         1 CLA      0.054700
     27 C1C        76.2211   60.0120   42.7775 cn         1 CLA     -0.005600
     28 C1D        74.6088   57.4529   39.5966 ap         1 CLA     -0.047300
     29 O1A        81.2689   55.9045   33.0049 o2         1 CLA     -0.610800
     30 O1D        78.7234   54.3207   35.2329 o2         1 CLA     -0.558200
     31 C2         82.9719   54.3265   36.5825 c8         1 CLA     -0.325100
     32 C2A        79.8176   57.6860   36.5491 a1         1 CLA      0.098600
     33 C2B        80.6221   61.4724   41.5251 cb         1 CLA      0.088500
     34 C2C        75.1728   59.7886   43.7350 cb         1 CLA      0.053700
     35 C2D        74.1059   56.5277   38.5574 cb         1 CLA      0.058900
     36 O2A        82.1027   56.1746   35.1380 o1         1 CLA     -0.437200
     37 O2D        77.9633   54.1673   37.4059 o1         1 CLA     -0.357600
     38 C3         83.9771   53.5409   37.0788 c5         1 CLA      0.031200
     39 C3A        80.8428   58.5355   37.4171 a1         1 CLA      0.166800
     40 C3B        79.7895   61.6991   42.5644 cb         1 CLA      0.035000
     41 C3C        74.1357   59.0117   43.0949 cb         1 CLA     -0.089900
     42 C3D        75.2155   56.3552   37.6868 cb         1 CLA     -0.035900
     43 C4         83.7776   52.1244   37.5134 a3         1 CLA     -0.053300
     44 C4A        80.0208   59.1139   38.4734 ac         1 CLA      0.001800
     45 C4B        78.5453   60.9572   42.2296 cn         1 CLA     -0.020900
     46 C4C        74.6082   58.7588   41.7041 cr         1 CLA     -0.044400
     47 C4D        76.2301   57.1429   38.1133 c6         1 CLA     -0.046000
     48 C5         85.3163   54.2021   37.2139 a2         1 CLA     -0.070400
     49 C6         85.7061   54.3958   38.7080 a2         1 CLA      0.043900
     50 C7         86.9928   55.1796   38.8460 a2         1 CLA     -0.150000
     51 C8         87.2036   55.8734   40.1837 a1         1 CLA      0.064200
     52 C9         86.2079   57.0762   40.3628 a3         1 CLA     -0.259300
     53 C10        88.6346   56.2983   40.4461 a2         1 CLA     -0.071900
     54 C11        89.0512   56.9052   41.7820 a2         1 CLA      0.014500
     55 C12        88.4362   56.0800   42.9545 a2         1 CLA     -0.112100
     56 C13        88.7896   56.5074   44.3310 a1         1 CLA      0.089200
     57 C14        88.6096   55.3487   45.4018 a3         1 CLA     -0.239100
     58 C15        87.8989   57.7021   44.7180 a2         1 CLA     -0.102200
     59 C16        88.4180   58.4783   45.9903 a2         1 CLA      0.023900
     60 C17        87.4328   59.5691   46.4900 a2         1 CLA     -0.105700
     61 C18        86.1581   59.1840   47.2896 a1         1 CLA      0.206800
     62 C19        86.4428   58.3568   48.5801 a3         1 CLA     -0.280100
     63 C20        85.2059   60.4000   47.5669 a3         1 CLA     -0.280100
     64 NC         75.8208   59.4591   41.5136 nx         1 CLA     -0.309200
     65 MG         77.2596   59.2249   40.0387 mg         1 CLA      0.895000
     66 HMD3       72.5852   55.2259   37.6488 dc         1 CLA      0.064300
     67 HMD2       72.6262   55.3441   39.3663 dc         1 CLA      0.064300
     68 HMD1       71.9554   56.6772   38.3965 dc         1 CLA      0.064300
     69 HMC3       74.4226   59.6566   45.7359 dc         1 CLA      0.052100
     70 HMC2       76.1348   60.0024   45.6325 dc         1 CLA      0.052100
     71 HMC1       74.9155   61.2981   45.3669 dc         1 CLA      0.052100
     72 HMB3       82.2498   62.8137   41.7306 dc         1 CLA      0.063600
     73 HMB2       82.7527   60.9735   41.6660 dc         1 CLA      0.063600
     74 HMB1       82.4711   61.9393   40.3503 dc         1 CLA      0.063600
     75 HMA3       82.3458   58.2231   38.8616 dc         1 CLA      0.058300
     76 HMA2       81.4468   56.7858   38.3516 dc         1 CLA      0.058300
     77 HMA1       82.7782   57.5071   37.3079 dc         1 CLA      0.058300
     78 HED3       78.4948   52.1471   37.3382 dc         1 CLA      0.079300
     79 HED2       79.9276   53.3201   37.5876 dc         1 CLA      0.079300
     80 HED1       78.6396   53.0129   38.7975 dc         1 CLA      0.079300
     81 HBC3       72.3130   56.3640   44.4680 dc         1 CLA      0.016300
     82 HBC2       73.5781   56.3329   43.1691 dc         1 CLA      0.016300
     83 HBC1       74.0088   56.8897   44.6907 dc         1 CLA      0.016300
     84 HBB2       79.9309   62.6645   45.8842 da         1 CLA      0.183000
     85 HBB1       78.9466   61.1431   45.2035 da         1 CLA      0.183000
     86 HBA2       80.6304   58.6509   33.2850 dc         1 CLA      0.029400
     87 HBA1       81.6045   58.4205   34.7283 dc         1 CLA      0.029400
     88 HAC2       72.6793   58.8844   44.6819 dc         1 CLA      0.029300
     89 HAC1       72.1137   58.2991   43.0991 dc         1 CLA      0.029300
     90 HAA2       78.7021   57.6297   34.6825 dc         1 CLA      0.028700
     91 HAA1       79.2102   59.2000   35.2274 dc         1 CLA      0.028700
     92 H203       85.7530   61.1812   48.1071 dc         1 CLA      0.065600
     93 H202       84.8386   60.7263   46.5522 dc         1 CLA      0.065600
     94 H201       84.4142   60.1086   48.2791 dc         1 CLA      0.065600
     95 H193       86.9538   57.5292   48.1074 dc         1 CLA      0.065600
     96 H192       87.1041   58.9676   49.1557 dc         1 CLA      0.065600
     97 H191       85.6277   58.0180   49.1478 dc         1 CLA      0.065600
     98 H172       88.1408   60.1780   47.0484 dc         1 CLA      0.027600
     99 H171       87.0020   60.1409   45.7072 dc         1 CLA      0.027600
    100 H162       88.4324   57.6899   46.7711 dc         1 CLA      0.002900
    101 H161       89.3894   58.9149   45.7599 dc         1 CLA      0.002900
    102 H152       87.8557   58.4247   43.8907 dc         1 CLA      0.029100
    103 H151       86.7847   57.4318   44.7138 dc         1 CLA      0.029100
    104 H143       89.2045   55.6283   46.2375 dc         1 CLA      0.063600
    105 H142       87.5857   55.0876   45.6496 dc         1 CLA      0.063600
    106 H141       89.0193   54.4548   44.9709 dc         1 CLA      0.063600
    107 H122       87.3170   55.9745   42.8567 dc         1 CLA      0.032500
    108 H121       88.8222   55.0621   42.7603 dc         1 CLA      0.032500
    109 H112       90.0764   56.9805   41.7933 dc         1 CLA      0.006600
    110 H111       88.6157   57.8801   41.8933 dc         1 CLA      0.006600
    111 H102       89.3014   55.4171   40.3206 dc         1 CLA      0.024100
    112 H101       89.0382   56.9295   39.6542 dc         1 CLA      0.024100
    113 HHD        73.1222   57.2824   41.0972 da         1 CLA      0.174300
    114 HHC        77.2239   61.3877   43.8989 da         1 CLA      0.136800
    115 HHB        81.5747   60.4277   39.1879 da         1 CLA      0.138300
    116 HBD        76.8680   56.4440   35.1471 dc         1 CLA      0.107700
    117 HAB        80.8012   63.2071   43.7324 da         1 CLA      0.155200
    118 H93        86.3649   57.7554   39.6100 dc         1 CLA      0.069500
    119 H92        85.1646   56.7358   40.3854 dc         1 CLA      0.069500
    120 H91        86.3949   57.5693   41.3292 dc         1 CLA      0.069500
    121 H8         86.9745   55.1948   41.0045 dc         1 CLA      0.029300
    122 H72        87.7729   54.4211   38.7139 dc         1 CLA      0.044400
    123 H71        87.0100   55.9142   38.0427 dc         1 CLA      0.044400
    124 H62        84.8873   54.8345   39.2948 dc         1 CLA      0.015600
    125 H61        85.8994   53.4475   39.2261 dc         1 CLA      0.015600
    126 H52        85.9221   53.4615   36.7048 dc         1 CLA      0.033200
    127 H51        85.4117   55.1242   36.6145 dc         1 CLA      0.033200
    128 H43        82.7917   51.8071   37.2713 dc         1 CLA      0.037000
    129 H42        84.4264   51.4874   36.9323 dc         1 CLA      0.037000
    130 H41        83.9806   51.9759   38.5772 dc         1 CLA      0.037000
    131 H3A        81.2896   59.3439   36.8120 dc         1 CLA      0.041100
    132 H2A        80.0316   56.6499   36.5754 dc         1 CLA      0.083100
    133 H2         82.5337   54.9564   37.3316 da         1 CLA      0.180900
    134 H18        85.5445   58.6383   46.6106 dc         1 CLA     -0.003900
    135 H13        89.7992   56.8552   44.3537 dc         1 CLA      0.019700
    136 H12        81.7560   54.0653   34.8104 dc         1 CLA      0.120400
    137 H11        83.3956   54.6885   34.4434 dc         1 CLA      0.120400
    138 C1         69.4212   61.6439   50.0742 Z1         2 LUT      0.509236
    139 C2         68.1238   61.2257   50.8971 Z2         2 LUT     -0.434695
    140 C3         66.9431   62.2455   50.9830 Z3         2 LUT      0.437453
    141 O3         66.8217   62.6918   52.3372 S1         2 LUT     -0.547129
    142 C4         67.1475   63.5251   50.1493 Z4         2 LUT     -0.468603
    143 C5         67.9679   63.3536   48.8907 Z5         2 LUT      0.279246
    144 C6         69.0721   62.5554   48.8662 Z6         2 LUT     -0.305473
    145 C7         69.4723   62.1184   47.5081 Z7         2 LUT      0.069402
    146 C8         70.6316   62.4253   46.9325 Z8         2 LUT     -0.191631
    147 C9         71.2883   62.2475   45.6111 Z9         2 LUT      0.196698
    148 C10        72.4098   62.9524   45.2657 Y1         2 LUT     -0.208611
    149 C11        73.0740   62.9083   44.0139 Y2         2 LUT      0.030784
    150 C12        74.2402   63.6306   43.7175 Y3         2 LUT     -0.220316
    151 C13        75.1356   63.5980   42.5350 Y4         2 LUT      0.215937
    152 C14        76.3438   64.2728   42.5676 Y5         2 LUT     -0.185793
    153 C15        77.4923   64.3028   41.6598 Y6         2 LUT     -0.057835
    154 C16        70.0995   60.2840   49.7083 Y7         2 LUT     -0.405615
    155 C17        70.1943   62.2873   51.1735 Y7         2 LUT     -0.405615
    156 C18        67.5317   64.2757   47.8288 Y9         2 LUT     -0.369639
    157 C19        70.6661   61.2511   44.7110 W1         2 LUT     -0.333362
    158 C20        74.5994   62.8077   41.3737 W2         2 LUT     -0.323439
    159 C21        89.1032   65.0571   35.7957 Z1         2 LUT      0.406104
    160 C22        89.7201   64.4139   34.5042 Z2         2 LUT     -0.404965
    161 C23        89.8941   65.3546   33.3740 Z3         2 LUT      0.391255
    162 O23        90.6365   64.5937   32.3327 S1         2 LUT     -0.528210
    163 C24        88.6190   66.1523   33.1307 W6         2 LUT     -0.258361
    164 C25        87.6407   66.3255   34.0500 Z5         2 LUT      0.133546
    165 C26        87.6309   65.6515   35.4721 W8         2 LUT     -0.147008
    166 C27        87.0498   66.3780   36.5763 Z7         2 LUT      0.023843
    167 C28        85.8391   66.0024   37.0616 Z8         2 LUT     -0.216987
    168 C29        85.3545   66.4162   38.3676 Z9         2 LUT      0.206524
    169 C30        84.1953   65.8439   38.7840 Y1         2 LUT     -0.215556
    170 C31        83.2933   66.0833   39.8438 Y2         2 LUT      0.025142
    171 C32        82.0958   65.4147   40.1689 Y3         2 LUT     -0.212209
    172 C33        81.1214   65.6046   41.2678 Y4         2 LUT      0.240937
    173 C34        79.8666   64.9669   41.1189 Y5         2 LUT     -0.218862
    174 C35        78.7074   64.9255   41.9801 Y6         2 LUT     -0.023547
    175 C36        90.1002   66.0909   36.2873 Y7         2 LUT     -0.393485
    176 C37        89.1921   64.0499   36.9723 Y7         2 LUT     -0.393485
    177 C38        86.3564   67.2376   33.8104 Y9         2 LUT     -0.387526
    178 C39        85.8755   67.7159   39.0102 W1         2 LUT     -0.322618
    179 C40        81.3972   66.6377   42.2684 W2         2 LUT     -0.358472
    180 H403       82.3537   66.5182   42.7119 R7         2 LUT      0.097720
    181 H402       81.4248   67.5913   41.6860 R7         2 LUT      0.097720
    182 H401       80.7171   66.7635   43.0728 R7         2 LUT      0.097720
    183 H393       86.2414   68.4391   38.3096 R4         2 LUT      0.082505
    184 H392       85.1716   68.2477   39.5566 R4         2 LUT      0.082505
    185 H391       86.5861   67.5204   39.7894 R4         2 LUT      0.082505
    186 H383       86.0916   67.9436   34.6177 R1         2 LUT      0.104030
    187 H382       86.4250   67.6487   32.7888 R1         2 LUT      0.104030
    188 H381       85.5414   66.5241   33.8146 R1         2 LUT      0.104030
    189 H373       90.2123   63.8157   37.2453 T4         2 LUT      0.089537
    190 H372       88.8298   64.5100   37.9232 T4         2 LUT      0.089537
    191 H371       88.6622   63.1403   36.8385 T4         2 LUT      0.089537
    192 H363       89.9361   66.4171   37.2668 T4         2 LUT      0.089537
    193 H362       91.1189   65.7084   36.3787 T4         2 LUT      0.089537
    194 H361       90.1001   66.9883   35.6442 T4         2 LUT      0.089537
    195 H222       90.6010   63.8543   34.6312 U2         2 LUT      0.127376
    196 H221       89.0480   63.6205   34.2620 U2         2 LUT      0.127376
    197 H203       73.5763   63.0915   41.3391 R7         2 LUT      0.087068
    198 H202       74.9220   63.1982   40.3731 R7         2 LUT      0.087068
    199 H201       74.6760   61.6914   41.4080 R7         2 LUT      0.087068
    200 H193       69.8954   60.6940   45.2388 R4         2 LUT      0.089716
    201 H192       70.2115   61.7087   43.8334 R4         2 LUT      0.089716
    202 H191       71.3504   60.5401   44.2942 R4         2 LUT      0.089716
    203 H183       66.4794   64.5508   48.0059 R1         2 LUT      0.094572
    204 H182       68.0081   65.2750   47.9036 R1         2 LUT      0.094572
    205 H181       67.5508   63.8706   46.7728 R1         2 LUT      0.094572
    206 H173       69.6194   63.1344   51.5475 T4         2 LUT      0.093752
    207 H172       70.5204   61.5707   52.0074 T4         2 LUT      0.093752
    208 H171       71.2273   62.6170   50.8804 T4         2 LUT      0.093752
    209 H163       71.1207   60.4286   49.3472 T4         2 LUT      0.093752
    210 H162       70.3039   59.8011   50.6071 T4         2 LUT      0.093752
    211 H161       69.4396   59.6640   49.0369 T4         2 LUT      0.093752
    212 HO3        66.5593   61.9708   52.9388 Q1         2 LUT      0.300121
    213 H8         71.3321   62.9185   47.5774 U7         2 LUT      0.080784
    214 H7         68.7377   61.4528   47.0113 U6         2 LUT      0.042190
    215 H42        66.1747   63.9899   50.0911 U5         2 LUT      0.145166
    216 H41        67.6580   64.3284   50.7360 U5         2 LUT      0.145166
    217 H35        78.9578   65.3312   43.0233 T3         2 LUT      0.077919
    218 H34        79.7223   64.4176   40.1999 T2         2 LUT      0.073626
    219 H32        81.8344   64.7185   39.3820 T1         2 LUT      0.092510
    220 H31        83.6481   66.8365   40.5781 U9         2 LUT      0.070048
    221 H30        83.8659   65.0097   38.1466 U8         2 LUT      0.085442
    222 H3         65.9942   61.6439   50.6130 U3         2 LUT     -0.031596
    223 H28        85.2720   65.3526   36.4300 U7         2 LUT      0.084728
    224 H27        87.6151   67.0554   37.1511 U6         2 LUT      0.087291
    225 H26        87.1037   64.7452   35.1799 Q6         2 LUT      0.075325
    226 H24        88.5731   66.7535   32.2068 Q5         2 LUT      0.094482
    227 H23        90.5922   66.0549   33.7750 U3         2 LUT     -0.024869
    228 H22        67.6893   60.5233   50.1703 U2         2 LUT      0.127376
    229 H21        68.3452   60.6861   51.8230 U2         2 LUT      0.127376
    230 H15        77.3370   63.9769   40.6301 T3         2 LUT      0.093200
    231 H14        76.5210   64.7329   43.5691 T2         2 LUT      0.068865
    232 H12        74.6093   64.2445   44.5139 T1         2 LUT      0.095507
    233 H11        72.6465   62.2105   43.2449 U9         2 LUT      0.068930
    234 H10        72.8367   63.6603   45.9780 U8         2 LUT      0.083911
    235 H1         90.0590   64.1497   31.7338 Q1         2 LUT      0.297311
@<TRIPOS>BOND
    1     6     1 1
    2     7     2 1
    3     8     3 1
    4     9     4 1
    5    11     4 1
    6    12     6 1
    7    13     9 1
    8    16     9 1
    9    25     5 1
   10    25    16 1
   11    26    10 1
   12    26    17 1
   13    27    18 1
   14    28    14 1
   15    28    19 1
   16    29    12 1
   17    30    13 1
   18    31    24 1
   19    32     1 1
   20    32    25 1
   21    33    21 1
   22    33    26 1
   23    34    22 1
   24    34    27 1
   25    35    23 1
   26    35    28 1
   27    36    12 1
   28    36    24 1
   29    37    13 1
   30    37    15 1
   31    38    31 1
   32    39    20 1
   33    39    32 1
   34    40     2 1
   35    40    33 1
   36    41     3 1
   37    41    34 1
   38    42     4 1
   39    42    35 1
   40    43    38 1
   41    44     5 1
   42    44    17 1
   43    44    39 1
   44    45    10 1
   45    45    18 1
   46    45    40 1
   47    46    19 1
   48    46    41 1
   49    47    14 1
   50    47    16 1
   51    47    42 1
   52    48    38 1
   53    49    48 1
   54    50    49 1
   55    51    50 1
   56    52    51 1
   57    53    51 1
   58    54    53 1
   59    55    54 1
   60    56    55 1
   61    57    56 1
   62    58    56 1
   63    59    58 1
   64    60    59 1
   65    61    60 1
   66    62    61 1
   67    63    61 1
   68    64    27 1
   69    64    46 1
   70    65     5 1
   71    65    10 1
   72    65    64 1
   73    65    14 1
   74    66    23 1
   75    67    23 1
   76    68    23 1
   77    69    22 1
   78    70    22 1
   79    71    22 1
   80    72    21 1
   81    73    21 1
   82    74    21 1
   83    75    20 1
   84    76    20 1
   85    77    20 1
   86    78    15 1
   87    79    15 1
   88    80    15 1
   89    81     8 1
   90    82     8 1
   91    83     8 1
   92    84     7 1
   93    85     7 1
   94    86     6 1
   95    87     6 1
   96    88     3 1
   97    89     3 1
   98    90     1 1
   99    91     1 1
  100    92    63 1
  101    93    63 1
  102    94    63 1
  103    95    62 1
  104    96    62 1
  105    97    62 1
  106    98    60 1
  107    99    60 1
  108   100    59 1
  109   101    59 1
  110   102    58 1
  111   103    58 1
  112   104    57 1
  113   105    57 1
  114   106    57 1
  115   107    55 1
  116   108    55 1
  117   109    54 1
  118   110    54 1
  119   111    53 1
  120   112    53 1
  121   113    19 1
  122   114    18 1
  123   115    17 1
  124   116     9 1
  125   117     2 1
  126   118    52 1
  127   119    52 1
  128   120    52 1
  129   121    51 1
  130   122    50 1
  131   123    50 1
  132   124    49 1
  133   125    49 1
  134   126    48 1
  135   127    48 1
  136   128    43 1
  137   129    43 1
  138   130    43 1
  139   131    39 1
  140   132    32 1
  141   133    31 1
  142   134    61 1
  143   135    56 1
  144   136    24 1
  145   137    24 1
  146   139   138 1
  147   140   139 1
  148   141   140 1
  149   142   140 1
  150   143   142 1
  151   144   138 1
  152   144   143 1
  153   145   144 1
  154   146   145 1
  155   147   146 1
  156   148   147 1
  157   149   148 1
  158   150   149 1
  159   151   150 1
  160   152   151 1
  161   153   152 1
  162   154   138 1
  163   155   138 1
  164   156   143 1
  165   157   147 1
  166   158   151 1
  167   160   159 1
  168   161   160 1
  169   162   161 1
  170   163   161 1
  171   164   163 1
  172   165   159 1
  173   165   164 1
  174   166   165 1
  175   167   166 1
  176   168   167 1
  177   169   168 1
  178   170   169 1
  179   171   170 1
  180   172   171 1
  181   173   172 1
  182   174   153 1
  183   174   173 1
  184   175   159 1
  185   176   159 1
  186   177   164 1
  187   178   168 1
  188   179   172 1
  189   180   179 1
  190   181   179 1
  191   182   179 1
  192   183   178 1
  193   184   178 1
  194   185   178 1
  195   186   177 1
  196   187   177 1
  197   188   177 1
  198   189   176 1
  199   190   176 1
  200   191   176 1
  201   192   175 1
  202   193   175 1
  203   194   175 1
  204   195   160 1
  205   196   160 1
  206   197   158 1
  207   198   158 1
  208   199   158 1
  209   200   157 1
  210   201   157 1
  211   202   157 1
  212   203   156 1
  213   204   156 1
  214   205   156 1
  215   206   155 1
  216   207   155 1
  217   208   155 1
  218   209   154 1
  219   210   154 1
  220   211   154 1
  221   212   141 1
  222   213   146 1
  223   214   145 1
  224   215   142 1
  225   216   142 1
  226   217   174 1
  227   218   173 1
  228   219   171 1
  229   220   170 1
  230   221   169 1
  231   222   140 1
  232   223   167 1
  233   224   166 1
  234   225   165 1
  235   226   163 1
  236   227   161 1
  237   228   139 1
  238   229   139 1
  239   230   153 1
  240   231   152 1
  241   232   150 1
  242   233   149 1
  243   234   148 1
  244   235   162 1
  245   65    153 1
  246   65    174 1
@<TRIPOS>SUBSTRUCTURE
      1 CLA               1 ****               0 ****  **** 
      2 LUT             138 ****               0 ****  **** 
