@<TRIPOS>MOLECULE
Cpptraj generated mol2 file.
  235   246     2     0     0
SMALL
USER_CHARGES


@<TRIPOS>ATOM
      1 CAA        77.9970   57.3375   33.2944 a2         1 CLA     -0.055900
      2 CAB        79.1374   61.5537   42.1478 c8         1 CLA     -0.148500
      3 CAC        71.9113   57.7912   42.4630 a2         1 CLA     -0.012600
      4 CAD        73.7840   55.0119   35.1750 ck         1 CLA      0.398800
      5 NA         77.2749   58.2052   36.7021 ns         1 CLA     -0.225500
      6 CBA        79.2639   57.1813   32.3425 a2         1 CLA     -0.135000
      7 CBB        80.2858   61.2689   42.8046 c0         1 CLA     -0.395200
      8 CBC        71.9133   56.2342   42.5581 a3         1 CLA     -0.037700
      9 CBD        75.3119   55.4389   34.7948 a1         1 CLA     -0.053900
     10 NB         77.5154   59.5813   39.3212 nm         1 CLA     -0.295700
     11 OBD        73.0788   54.2162   34.5345 o2         1 CLA     -0.494600
     12 CGA        79.7152   55.6588   32.2046 c4         1 CLA      0.827000
     13 CGD        76.2267   54.2309   34.8198 c4         1 CLA      0.655300
     14 ND         74.5125   57.4312   37.6860 nm         1 CLA     -0.291600
     15 CED        76.5401   52.1688   35.9383 a3         1 CLA      0.005400
     16 CHA        75.7762   56.5473   35.7256 cs         1 CLA     -0.123800
     17 CHB        79.2816   59.1821   37.7035 aa         1 CLA     -0.291900
     18 CHC        76.3928   60.0087   41.5059 aa         1 CLA     -0.090400
     19 CHD        72.8470   57.4223   39.4775 aa         1 CLA     -0.052000
     20 CMA        80.4899   56.8397   35.9554 a3         1 CLA     -0.230700
     21 CMB        81.0633   61.2768   39.6459 a3         1 CLA     -0.180800
     22 CMC        74.2750   59.5453   43.8230 a3         1 CLA     -0.134000
     23 CMD        71.3044   55.3752   37.5107 a3         1 CLA     -0.141100
     24 C1         80.4023   53.5897   33.3487 a2         1 CLA      0.023000
     25 C1A        77.0097   57.2412   35.8045 ac         1 CLA     -0.015100
     26 C1B        78.8052   59.8131   38.8837 cr         1 CLA      0.054700
     27 C1C        75.2136   59.2431   41.3865 cn         1 CLA     -0.005600
     28 C1D        73.2368   57.0574   38.1936 ap         1 CLA     -0.047300
     29 O1A        79.5036   54.9059   31.2271 o2         1 CLA     -0.610800
     30 O1D        77.0887   53.9053   33.9309 o2         1 CLA     -0.558200
     31 C2         81.0270   53.1526   34.6671 c8         1 CLA     -0.325100
     32 C2A        78.1844   56.9574   34.8288 a1         1 CLA      0.098600
     33 C2B        79.6263   60.6390   39.8066 cb         1 CLA      0.088500
     34 C2C        74.1446   59.1162   42.3901 cb         1 CLA      0.053700
     35 C2D        72.6287   56.0707   37.3400 cb         1 CLA      0.058900
     36 O2A        80.4000   55.1323   33.3523 o1         1 CLA     -0.437200
     37 O2D        75.9929   53.5391   35.9962 o1         1 CLA     -0.357600
     38 C3         81.8698   52.1103   34.7885 c5         1 CLA      0.031200
     39 C3A        79.2959   57.7424   35.5408 a1         1 CLA      0.166800
     40 C3B        78.7285   60.7779   40.9173 cb         1 CLA      0.035000
     41 C3C        73.1176   58.3430   41.8214 cb         1 CLA     -0.089900
     42 C3D        73.5776   55.8488   36.3633 cb         1 CLA     -0.035900
     43 C4         81.4782   50.7933   35.4787 a3         1 CLA     -0.053300
     44 C4A        78.5765   58.4457   36.7355 ac         1 CLA      0.001800
     45 C4B        77.4254   60.1652   40.5961 cn         1 CLA     -0.020900
     46 C4C        73.5690   58.0618   40.4909 cr         1 CLA     -0.044400
     47 C4D        74.6526   56.7751   36.5175 c6         1 CLA     -0.046000
     48 C5         83.3564   52.2996   34.5550 a2         1 CLA     -0.070400
     49 C6         84.0167   53.5479   35.1763 a2         1 CLA      0.043900
     50 C7         84.2175   53.5370   36.7410 a2         1 CLA     -0.150000
     51 C8         85.1093   54.6339   37.3946 a1         1 CLA      0.064200
     52 C9         86.6483   54.4241   37.0232 a3         1 CLA     -0.259300
     53 C10        84.8882   54.8293   38.9129 a2         1 CLA     -0.071900
     54 C11        83.4793   55.2494   39.4245 a2         1 CLA      0.014500
     55 C12        83.3915   55.5702   40.9400 a2         1 CLA     -0.112100
     56 C13        81.9865   56.1429   41.3978 a1         1 CLA      0.089200
     57 C14        81.5329   57.4271   40.6347 a3         1 CLA     -0.239100
     58 C15        81.9104   56.2780   42.9092 a2         1 CLA     -0.102200
     59 C16        82.8478   57.2764   43.6689 a2         1 CLA      0.023900
     60 C17        82.4743   57.5362   45.1268 a2         1 CLA     -0.105700
     61 C18        83.1213   58.7233   45.7459 a1         1 CLA      0.206800
     62 C19        82.5662   59.0617   47.1069 a3         1 CLA     -0.280100
     63 C20        84.6949   58.6646   45.7061 a3         1 CLA     -0.280100
     64 NC         74.8256   58.5641   40.2495 nx         1 CLA     -0.309200
     65 MG         76.0078   58.5643   38.4797 mg         1 CLA      0.895000
     66 HMD3       71.1605   54.6317   36.7444 dc         1 CLA      0.064300
     67 HMD2       71.2893   55.0021   38.5407 dc         1 CLA      0.064300
     68 HMD1       70.5355   56.1589   37.4696 dc         1 CLA      0.064300
     69 HMC3       75.1883   59.2433   44.2877 dc         1 CLA      0.052100
     70 HMC2       74.2962   60.6209   43.8082 dc         1 CLA      0.052100
     71 HMC1       73.4786   59.2699   44.5821 dc         1 CLA      0.052100
     72 HMB3       81.2921   62.1511   40.2938 dc         1 CLA      0.063600
     73 HMB2       81.7171   60.4525   39.8598 dc         1 CLA      0.063600
     74 HMB1       81.1671   61.5801   38.5724 dc         1 CLA      0.063600
     75 HMA3       81.1222   57.3342   36.6839 dc         1 CLA      0.058300
     76 HMA2       80.1481   55.8808   36.4389 dc         1 CLA      0.058300
     77 HMA1       81.1470   56.7072   35.1185 dc         1 CLA      0.058300
     78 HED3       76.9391   51.8659   36.9312 dc         1 CLA      0.079300
     79 HED2       75.8345   51.3680   35.6155 dc         1 CLA      0.079300
     80 HED1       77.3587   52.1516   35.2816 dc         1 CLA      0.079300
     81 HBC3       72.8203   55.7994   43.0634 dc         1 CLA      0.016300
     82 HBC2       71.0111   55.9227   43.0971 dc         1 CLA      0.016300
     83 HBC1       71.6990   55.7744   41.5812 dc         1 CLA      0.016300
     84 HBB2       80.7135   61.8227   43.6978 da         1 CLA      0.183000
     85 HBB1       80.9700   60.4510   42.5093 da         1 CLA      0.183000
     86 HBA2       79.0166   57.4750   31.3551 dc         1 CLA      0.029400
     87 HBA1       80.1415   57.8266   32.6287 dc         1 CLA      0.029400
     88 HAC2       71.7848   58.0232   43.4891 dc         1 CLA      0.029300
     89 HAC1       71.0341   58.1677   41.9418 dc         1 CLA      0.029300
     90 HAA2       77.2278   56.6931   32.8527 dc         1 CLA      0.028700
     91 HAA1       77.7735   58.3940   33.1476 dc         1 CLA      0.028700
     92 H203       85.1793   58.5483   44.7175 dc         1 CLA      0.065600
     93 H202       85.0976   59.6028   46.1339 dc         1 CLA      0.065600
     94 H201       85.2001   57.8078   46.2094 dc         1 CLA      0.065600
     95 H193       82.3641   58.2552   47.8225 dc         1 CLA      0.065600
     96 H192       83.1399   59.8711   47.5536 dc         1 CLA      0.065600
     97 H191       81.5881   59.5256   46.8489 dc         1 CLA      0.065600
     98 H172       81.4006   57.7135   45.2938 dc         1 CLA      0.027600
     99 H171       82.8243   56.5936   45.5599 dc         1 CLA      0.027600
    100 H162       83.8918   56.9001   43.6272 dc         1 CLA      0.002900
    101 H161       82.8547   58.2108   43.0930 dc         1 CLA      0.002900
    102 H152       80.8602   56.5485   43.1236 dc         1 CLA      0.029100
    103 H151       82.1191   55.3194   43.3532 dc         1 CLA      0.029100
    104 H143       82.0940   58.3073   40.9233 dc         1 CLA      0.063600
    105 H142       81.5712   57.4549   39.5291 dc         1 CLA      0.063600
    106 H141       80.5231   57.6188   40.8475 dc         1 CLA      0.063600
    107 H122       83.4935   54.6628   41.4867 dc         1 CLA      0.032500
    108 H121       84.1863   56.3131   41.2861 dc         1 CLA      0.032500
    109 H112       83.2884   56.0926   38.7751 dc         1 CLA      0.006600
    110 H111       82.6650   54.5071   39.2999 dc         1 CLA      0.006600
    111 H102       85.0523   53.8545   39.4512 dc         1 CLA      0.024100
    112 H101       85.6200   55.5716   39.3110 dc         1 CLA      0.024100
    113 HHD        71.8855   57.1694   39.8560 da         1 CLA      0.174300
    114 HHC        76.6304   60.4706   42.4652 da         1 CLA      0.136800
    115 HHB        80.3700   59.3053   37.5240 da         1 CLA      0.138300
    116 HBD        75.2807   55.8239   33.7809 dc         1 CLA      0.107700
    117 HAB        78.6161   62.4207   42.4795 da         1 CLA      0.155200
    118 H93        86.9511   53.5929   37.5445 dc         1 CLA      0.069500
    119 H92        86.8611   54.3276   35.9603 dc         1 CLA      0.069500
    120 H91        87.2282   55.3423   37.2863 dc         1 CLA      0.069500
    121 H8         84.7370   55.5663   36.9564 dc         1 CLA      0.029300
    122 H72        83.1885   53.4584   37.1865 dc         1 CLA      0.044400
    123 H71        84.7254   52.6700   37.0321 dc         1 CLA      0.044400
    124 H62        85.0954   53.6162   34.8103 dc         1 CLA      0.015600
    125 H61        83.4145   54.4095   34.9649 dc         1 CLA      0.015600
    126 H52        83.9044   51.3710   34.9745 dc         1 CLA      0.033200
    127 H51        83.5488   52.3909   33.4587 dc         1 CLA      0.033200
    128 H43        82.3400   50.2173   35.8177 dc         1 CLA      0.037000
    129 H42        80.9930   51.0224   36.3737 dc         1 CLA      0.037000
    130 H41        80.8646   50.1454   34.8502 dc         1 CLA      0.037000
    131 H3A        79.6810   58.6115   35.0159 dc         1 CLA      0.041100
    132 H2A        78.5147   55.9174   35.0237 dc         1 CLA      0.083100
    133 H2         81.0653   53.8986   35.3809 da         1 CLA      0.180900
    134 H18        82.8718   59.5421   45.0205 dc         1 CLA     -0.003900
    135 H13        81.2348   55.3452   41.1878 dc         1 CLA      0.019700
    136 H12        79.4809   53.1321   33.2662 dc         1 CLA      0.120400
    137 H11        80.9151   53.2979   32.4988 dc         1 CLA      0.120400
    138 C1         68.3183   60.6936   49.0277 Z1         2 LUT      0.509236
    139 C2         67.0949   60.5076   49.9366 Z2         2 LUT     -0.434695
    140 C3         66.3314   61.7161   50.2709 Z3         2 LUT      0.437453
    141 O3         66.6299   62.3152   51.4844 S1         2 LUT     -0.547129
    142 C4         66.4733   62.7808   49.1996 Z4         2 LUT     -0.468603
    143 C5         66.9818   62.4223   47.8930 Z5         2 LUT      0.279246
    144 C6         67.9180   61.4756   47.7542 Z6         2 LUT     -0.305473
    145 C7         68.2846   60.8664   46.4347 Z7         2 LUT      0.069402
    146 C8         69.3890   61.2442   45.7841 Z8         2 LUT     -0.191631
    147 C9         69.8606   60.8332   44.4542 Z9         2 LUT      0.196698
    148 C10        70.8842   61.5788   44.0245 Y1         2 LUT     -0.208611
    149 C11        71.5940   61.4765   42.7355 Y2         2 LUT      0.030784
    150 C12        72.6467   62.3477   42.4082 Y3         2 LUT     -0.220316
    151 C13        73.5007   62.3485   41.2035 Y4         2 LUT      0.215937
    152 C14        74.7094   62.9934   41.2345 Y5         2 LUT     -0.185793
    153 C15        75.8344   62.9965   40.3002 Y6         2 LUT     -0.057835
    154 C16        68.8380   59.2355   48.7482 Y7         2 LUT     -0.405615
    155 C17        69.3723   61.4289   49.8550 Y7         2 LUT     -0.405615
    156 C18        66.2162   63.2512   46.8650 Y9         2 LUT     -0.369639
    157 C19        69.0189   59.8214   43.6155 W1         2 LUT     -0.333362
    158 C20        73.0124   61.6255   39.9997 W2         2 LUT     -0.323439
    159 C21        87.3678   64.2514   34.8122 Z1         2 LUT      0.406104
    160 C22        88.2408   63.7807   33.5925 Z2         2 LUT     -0.404965
    161 C23        88.3797   64.8132   32.4592 Z3         2 LUT      0.391255
    162 O23        88.7348   64.0393   31.2634 S1         2 LUT     -0.528210
    163 C24        87.1336   65.7270   32.3030 W6         2 LUT     -0.258361
    164 C25        86.0041   65.6877   33.0497 Z5         2 LUT      0.133546
    165 C26        85.9719   64.8897   34.3468 W8         2 LUT     -0.147008
    166 C27        85.1265   65.4941   35.4533 Z7         2 LUT      0.023843
    167 C28        83.7639   65.3719   35.7096 Z8         2 LUT     -0.216987
    168 C29        83.1478   65.7522   37.0040 Z9         2 LUT      0.206524
    169 C30        82.0090   65.1136   37.3844 Y1         2 LUT     -0.215556
    170 C31        81.3825   65.1999   38.6079 Y2         2 LUT      0.025142
    171 C32        80.2281   64.5359   38.6861 Y3         2 LUT     -0.212209
    172 C33        79.3455   64.5791   39.8723 Y4         2 LUT      0.240937
    173 C34        78.0916   63.9847   39.7105 Y5         2 LUT     -0.218862
    174 C35        76.9388   63.7351   40.5243 Y6         2 LUT     -0.023547
    175 C36        88.3166   65.0914   35.7118 Y7         2 LUT     -0.393485
    176 C37        87.1691   62.9393   35.5481 Y7         2 LUT     -0.393485
    177 C38        84.8170   66.6320   32.7098 Y9         2 LUT     -0.387526
    178 C39        83.9094   66.6411   37.9156 W1         2 LUT     -0.322618
    179 C40        79.6225   65.1724   41.2028 W2         2 LUT     -0.358472
    180 H403       78.8347   65.7012   41.7157 R7         2 LUT      0.097720
    181 H402       79.7939   64.3685   41.8403 R7         2 LUT      0.097720
    182 H401       80.5319   65.8401   41.1569 R7         2 LUT      0.097720
    183 H393       83.3177   67.3478   38.4325 R4         2 LUT      0.082505
    184 H392       84.4456   66.0332   38.6766 R4         2 LUT      0.082505
    185 H391       84.5409   67.2918   37.3281 R4         2 LUT      0.082505
    186 H383       85.0926   67.1689   31.7664 R1         2 LUT      0.104030
    187 H382       83.9812   65.9941   32.4596 R1         2 LUT      0.104030
    188 H381       84.4657   67.3049   33.5033 R1         2 LUT      0.104030
    189 H373       86.6050   62.1481   34.9618 T4         2 LUT      0.089537
    190 H372       88.1713   62.6705   35.7661 T4         2 LUT      0.089537
    191 H371       86.6281   63.0349   36.4951 T4         2 LUT      0.089537
    192 H363       89.1964   64.5567   35.9686 T4         2 LUT      0.089537
    193 H362       88.6201   65.9511   35.1305 T4         2 LUT      0.089537
    194 H361       87.9367   65.5246   36.5940 T4         2 LUT      0.089537
    195 H222       89.2101   63.3948   33.9032 U2         2 LUT      0.127376
    196 H221       87.5610   63.0189   33.1414 U2         2 LUT      0.127376
    197 H203       73.6717   61.6983   39.1048 R7         2 LUT      0.087068
    198 H202       72.8989   60.5806   40.1824 R7         2 LUT      0.087068
    199 H201       72.0322   61.9743   39.7585 R7         2 LUT      0.087068
    200 H193       68.6619   59.0780   44.3562 R4         2 LUT      0.089716
    201 H192       68.3252   60.4156   43.0380 R4         2 LUT      0.089716
    202 H191       69.5704   59.1543   42.9692 R4         2 LUT      0.089716
    203 H183       66.8186   64.0835   46.4430 R1         2 LUT      0.094572
    204 H182       66.0182   62.5767   46.0162 R1         2 LUT      0.094572
    205 H181       65.1963   63.5301   47.1286 R1         2 LUT      0.094572
    206 H173       69.8680   60.8877   50.5862 T4         2 LUT      0.093752
    207 H172       70.2005   61.9162   49.3057 T4         2 LUT      0.093752
    208 H171       68.8796   62.2783   50.2886 T4         2 LUT      0.093752
    209 H163       69.2870   58.8463   49.6907 T4         2 LUT      0.093752
    210 H162       67.9585   58.6743   48.3825 T4         2 LUT      0.093752
    211 H161       69.5402   59.0365   47.9712 T4         2 LUT      0.093752
    212 HO3        66.4359   61.7589   52.2581 Q1         2 LUT      0.300121
    213 H8         70.0335   61.9359   46.3707 U7         2 LUT      0.080784
    214 H7         67.5580   60.1502   46.0751 U6         2 LUT      0.042190
    215 H42        65.5394   63.3317   48.9930 U5         2 LUT      0.145166
    216 H41        67.1541   63.6134   49.5755 U5         2 LUT      0.145166
    217 H35        76.9076   64.2910   41.5047 T3         2 LUT      0.077919
    218 H34        77.8830   63.7017   38.7358 T2         2 LUT      0.073626
    219 H32        79.8914   64.1404   37.7273 T1         2 LUT      0.092510
    220 H31        81.6998   65.7768   39.4476 U9         2 LUT      0.070048
    221 H30        81.5950   64.5867   36.4790 U8         2 LUT      0.085442
    222 H3         65.2512   61.3926   50.2528 U3         2 LUT     -0.031596
    223 H28        83.2217   64.8126   35.0686 U7         2 LUT      0.084728
    224 H27        85.7834   65.9798   36.1041 U6         2 LUT      0.087291
    225 H26        85.3022   63.9934   34.1653 Q6         2 LUT      0.075325
    226 H24        87.0775   66.5117   31.5219 Q5         2 LUT      0.094482
    227 H23        89.2117   65.4660   32.6427 U3         2 LUT     -0.024869
    228 H22        66.2728   59.9207   49.3843 U2         2 LUT      0.127376
    229 H21        67.3263   59.8576   50.7802 U2         2 LUT      0.127376
    230 H15        75.7515   62.4198   39.3421 T3         2 LUT      0.093200
    231 H14        74.8782   63.6015   42.1478 T2         2 LUT      0.068865
    232 H12        72.9535   63.0951   43.1432 T1         2 LUT      0.095507
    233 H11        71.2016   60.7702   42.0765 U9         2 LUT      0.068930
    234 H10        71.2427   62.2621   44.7166 U8         2 LUT      0.083911
    235 H1         88.4831   64.4871   30.4913 Q1         2 LUT      0.297311
@<TRIPOS>BOND
    1     6     1 1
    2     7     2 1
    3     8     3 1
    4     9     4 1
    5    11     4 1
    6    12     6 1
    7    13     9 1
    8    16     9 1
    9    25     5 1
   10    25    16 1
   11    26    10 1
   12    26    17 1
   13    27    18 1
   14    28    14 1
   15    28    19 1
   16    29    12 1
   17    30    13 1
   18    31    24 1
   19    32     1 1
   20    32    25 1
   21    33    21 1
   22    33    26 1
   23    34    22 1
   24    34    27 1
   25    35    23 1
   26    35    28 1
   27    36    12 1
   28    36    24 1
   29    37    13 1
   30    37    15 1
   31    38    31 1
   32    39    20 1
   33    39    32 1
   34    40     2 1
   35    40    33 1
   36    41     3 1
   37    41    34 1
   38    42     4 1
   39    42    35 1
   40    43    38 1
   41    44     5 1
   42    44    17 1
   43    44    39 1
   44    45    10 1
   45    45    18 1
   46    45    40 1
   47    46    19 1
   48    46    41 1
   49    47    14 1
   50    47    16 1
   51    47    42 1
   52    48    38 1
   53    49    48 1
   54    50    49 1
   55    51    50 1
   56    52    51 1
   57    53    51 1
   58    54    53 1
   59    55    54 1
   60    56    55 1
   61    57    56 1
   62    58    56 1
   63    59    58 1
   64    60    59 1
   65    61    60 1
   66    62    61 1
   67    63    61 1
   68    64    27 1
   69    64    46 1
   70    65     5 1
   71    65    10 1
   72    65    64 1
   73    65    14 1
   74    66    23 1
   75    67    23 1
   76    68    23 1
   77    69    22 1
   78    70    22 1
   79    71    22 1
   80    72    21 1
   81    73    21 1
   82    74    21 1
   83    75    20 1
   84    76    20 1
   85    77    20 1
   86    78    15 1
   87    79    15 1
   88    80    15 1
   89    81     8 1
   90    82     8 1
   91    83     8 1
   92    84     7 1
   93    85     7 1
   94    86     6 1
   95    87     6 1
   96    88     3 1
   97    89     3 1
   98    90     1 1
   99    91     1 1
  100    92    63 1
  101    93    63 1
  102    94    63 1
  103    95    62 1
  104    96    62 1
  105    97    62 1
  106    98    60 1
  107    99    60 1
  108   100    59 1
  109   101    59 1
  110   102    58 1
  111   103    58 1
  112   104    57 1
  113   105    57 1
  114   106    57 1
  115   107    55 1
  116   108    55 1
  117   109    54 1
  118   110    54 1
  119   111    53 1
  120   112    53 1
  121   113    19 1
  122   114    18 1
  123   115    17 1
  124   116     9 1
  125   117     2 1
  126   118    52 1
  127   119    52 1
  128   120    52 1
  129   121    51 1
  130   122    50 1
  131   123    50 1
  132   124    49 1
  133   125    49 1
  134   126    48 1
  135   127    48 1
  136   128    43 1
  137   129    43 1
  138   130    43 1
  139   131    39 1
  140   132    32 1
  141   133    31 1
  142   134    61 1
  143   135    56 1
  144   136    24 1
  145   137    24 1
  146   139   138 1
  147   140   139 1
  148   141   140 1
  149   142   140 1
  150   143   142 1
  151   144   138 1
  152   144   143 1
  153   145   144 1
  154   146   145 1
  155   147   146 1
  156   148   147 1
  157   149   148 1
  158   150   149 1
  159   151   150 1
  160   152   151 1
  161   153   152 1
  162   154   138 1
  163   155   138 1
  164   156   143 1
  165   157   147 1
  166   158   151 1
  167   160   159 1
  168   161   160 1
  169   162   161 1
  170   163   161 1
  171   164   163 1
  172   165   159 1
  173   165   164 1
  174   166   165 1
  175   167   166 1
  176   168   167 1
  177   169   168 1
  178   170   169 1
  179   171   170 1
  180   172   171 1
  181   173   172 1
  182   174   153 1
  183   174   173 1
  184   175   159 1
  185   176   159 1
  186   177   164 1
  187   178   168 1
  188   179   172 1
  189   180   179 1
  190   181   179 1
  191   182   179 1
  192   183   178 1
  193   184   178 1
  194   185   178 1
  195   186   177 1
  196   187   177 1
  197   188   177 1
  198   189   176 1
  199   190   176 1
  200   191   176 1
  201   192   175 1
  202   193   175 1
  203   194   175 1
  204   195   160 1
  205   196   160 1
  206   197   158 1
  207   198   158 1
  208   199   158 1
  209   200   157 1
  210   201   157 1
  211   202   157 1
  212   203   156 1
  213   204   156 1
  214   205   156 1
  215   206   155 1
  216   207   155 1
  217   208   155 1
  218   209   154 1
  219   210   154 1
  220   211   154 1
  221   212   141 1
  222   213   146 1
  223   214   145 1
  224   215   142 1
  225   216   142 1
  226   217   174 1
  227   218   173 1
  228   219   171 1
  229   220   170 1
  230   221   169 1
  231   222   140 1
  232   223   167 1
  233   224   166 1
  234   225   165 1
  235   226   163 1
  236   227   161 1
  237   228   139 1
  238   229   139 1
  239   230   153 1
  240   231   152 1
  241   232   150 1
  242   233   149 1
  243   234   148 1
  244   235   162 1
  245   65    153 1
  246   65    174 1
@<TRIPOS>SUBSTRUCTURE
      1 CLA               1 ****               0 ****  **** 
      2 LUT             138 ****               0 ****  **** 
