@<TRIPOS>MOLECULE
Cpptraj generated mol2 file.
  235   246     2     0     0
SMALL
USER_CHARGES


@<TRIPOS>ATOM
      1 CAA        80.0076   58.7409   33.5393 a2         1 CLA     -0.055900
      2 CAB        79.8491   62.2920   42.6332 c8         1 CLA     -0.148500
      3 CAC        73.1634   57.9402   42.2312 a2         1 CLA     -0.012600
      4 CAD        75.8417   56.0216   34.6908 ck         1 CLA      0.398800
      5 NA         78.9429   59.0369   36.9582 ns         1 CLA     -0.225500
      6 CBA        81.3416   58.5645   32.7897 a2         1 CLA     -0.135000
      7 CBB        80.9197   62.2850   43.4704 c0         1 CLA     -0.395200
      8 CBC        73.4381   56.4936   42.7085 a3         1 CLA     -0.037700
      9 CBD        77.1897   56.7228   34.3035 a1         1 CLA     -0.053900
     10 NB         78.7289   60.4307   39.6262 nm         1 CLA     -0.295700
     11 OBD        75.2151   55.2702   33.9434 o2         1 CLA     -0.494600
     12 CGA        81.7932   57.1090   32.4256 c4         1 CLA      0.827000
     13 CGD        78.1271   55.6388   33.8351 c4         1 CLA      0.655300
     14 ND         76.2842   57.9089   37.6193 nm         1 CLA     -0.291600
     15 CED        79.1498   53.5612   34.3074 a3         1 CLA      0.005400
     16 CHA        77.5971   57.5530   35.5304 cs         1 CLA     -0.123800
     17 CHB        80.6881   60.5060   38.0092 aa         1 CLA     -0.291900
     18 CHC        77.3730   60.6817   41.6180 aa         1 CLA     -0.090400
     19 CHD        74.4145   57.6198   39.2327 aa         1 CLA     -0.052000
     20 CMA        82.4019   58.7227   36.2986 a3         1 CLA     -0.230700
     21 CMB        81.9740   62.1973   40.1353 a3         1 CLA     -0.180800
     22 CMC        75.1158   60.0545   43.6422 a3         1 CLA     -0.134000
     23 CMD        73.3748   55.5361   37.0465 a3         1 CLA     -0.141100
     24 C1         83.2810   55.3809   33.3806 a2         1 CLA      0.023000
     25 C1A        78.7836   58.3510   35.8251 ac         1 CLA     -0.015100
     26 C1B        79.9848   60.8200   39.2391 cr         1 CLA      0.054700
     27 C1C        76.2123   59.9083   41.2879 cn         1 CLA     -0.005600
     28 C1D        75.0502   57.3286   38.0238 ap         1 CLA     -0.047300
     29 O1A        81.7770   56.5538   31.3228 o2         1 CLA     -0.610800
     30 O1D        78.6049   55.6299   32.7062 o2         1 CLA     -0.558200
     31 C2         83.9420   54.9700   34.6820 c8         1 CLA     -0.325100
     32 C2A        80.1310   58.2826   35.0652 a1         1 CLA      0.098600
     33 C2B        80.6247   61.5459   40.2953 cb         1 CLA      0.088500
     34 C2C        75.1328   59.6222   42.2306 cb         1 CLA      0.053700
     35 C2D        74.6229   56.3478   37.0028 cb         1 CLA      0.058900
     36 O2A        82.5216   56.6386   33.5188 o1         1 CLA     -0.437200
     37 O2D        78.4797   54.7396   34.7764 o1         1 CLA     -0.357600
     38 C3         85.0811   54.2158   34.8591 c5         1 CLA      0.031200
     39 C3A        81.0276   59.2782   35.8459 a1         1 CLA      0.166800
     40 C3B        79.7196   61.5707   41.3711 cb         1 CLA      0.035000
     41 C3C        74.3582   58.6840   41.6137 cb         1 CLA     -0.089900
     42 C3D        75.5079   56.5403   35.9994 cb         1 CLA     -0.035900
     43 C4         85.1786   52.8291   35.1937 a3         1 CLA     -0.053300
     44 C4A        80.1705   59.6717   37.0035 ac         1 CLA      0.001800
     45 C4B        78.5188   60.8754   40.8761 cn         1 CLA     -0.020900
     46 C4C        74.9083   58.4763   40.2331 cr         1 CLA     -0.044400
     47 C4D        76.5385   57.3485   36.4433 c6         1 CLA     -0.046000
     48 C5         86.4121   54.8867   34.7195 a2         1 CLA     -0.070400
     49 C6         86.7307   56.1171   35.6070 a2         1 CLA      0.043900
     50 C7         86.7965   55.7713   37.1881 a2         1 CLA     -0.150000
     51 C8         87.1506   56.9878   38.1121 a1         1 CLA      0.064200
     52 C9         88.1984   57.9072   37.5297 a3         1 CLA     -0.259300
     53 C10        87.5670   56.5033   39.5513 a2         1 CLA     -0.071900
     54 C11        87.6103   57.6843   40.5858 a2         1 CLA      0.014500
     55 C12        87.4439   57.0595   42.0608 a2         1 CLA     -0.112100
     56 C13        88.0760   57.8026   43.2427 a1         1 CLA      0.089200
     57 C14        89.6560   57.8872   43.1106 a3         1 CLA     -0.239100
     58 C15        87.7962   57.1381   44.6282 a2         1 CLA     -0.102200
     59 C16        86.2304   56.8923   44.8734 a2         1 CLA      0.023900
     60 C17        85.4339   58.1458   45.1352 a2         1 CLA     -0.105700
     61 C18        83.9043   58.1078   45.4405 a1         1 CLA      0.206800
     62 C19        83.6661   57.3225   46.7673 a3         1 CLA     -0.280100
     63 C20        83.2455   59.5955   45.4321 a3         1 CLA     -0.280100
     64 NC         76.0073   59.2421   40.1136 nx         1 CLA     -0.309200
     65 MG         77.3941   59.3215   38.4807 mg         1 CLA      0.895000
     66 HMD3       72.4537   56.0728   36.6804 dc         1 CLA      0.064300
     67 HMD2       73.5498   54.6285   36.4619 dc         1 CLA      0.064300
     68 HMD1       73.1978   55.2449   38.0679 dc         1 CLA      0.064300
     69 HMC3       75.5034   59.1736   44.1146 dc         1 CLA      0.052100
     70 HMC2       75.7610   60.8172   43.8360 dc         1 CLA      0.052100
     71 HMC1       74.0551   60.2973   43.9304 dc         1 CLA      0.052100
     72 HMB3       82.7790   61.4501   40.1882 dc         1 CLA      0.063600
     73 HMB2       81.9208   62.8353   39.2177 dc         1 CLA      0.063600
     74 HMB1       82.2521   62.8013   41.0004 dc         1 CLA      0.063600
     75 HMA3       82.2483   57.8588   36.8696 dc         1 CLA      0.058300
     76 HMA2       82.9212   58.3370   35.4240 dc         1 CLA      0.058300
     77 HMA1       82.9908   59.5384   36.7568 dc         1 CLA      0.058300
     78 HED3       78.7339   53.0873   33.4003 dc         1 CLA      0.079300
     79 HED2       80.2474   53.7856   34.2769 dc         1 CLA      0.079300
     80 HED1       79.0274   52.7736   35.0817 dc         1 CLA      0.079300
     81 HBC3       72.4202   56.0486   42.8029 dc         1 CLA      0.016300
     82 HBC2       74.1244   55.9630   42.0492 dc         1 CLA      0.016300
     83 HBC1       73.9715   56.4772   43.6576 dc         1 CLA      0.016300
     84 HBB2       80.7225   62.9495   44.3241 da         1 CLA      0.183000
     85 HBB1       81.8870   61.8220   43.4477 da         1 CLA      0.183000
     86 HBA2       81.1586   59.0962   31.8028 dc         1 CLA      0.029400
     87 HBA1       82.1698   59.1526   33.1244 dc         1 CLA      0.029400
     88 HAC2       72.7339   58.3902   43.1644 dc         1 CLA      0.029300
     89 HAC1       72.3865   57.8621   41.4333 dc         1 CLA      0.029300
     90 HAA2       79.3068   58.0832   32.9906 dc         1 CLA      0.028700
     91 HAA1       79.6574   59.7587   33.4899 dc         1 CLA      0.028700
     92 H203       82.1262   59.5537   45.4838 dc         1 CLA      0.065600
     93 H202       83.5000   60.1494   46.3644 dc         1 CLA      0.065600
     94 H201       83.4802   60.1076   44.4776 dc         1 CLA      0.065600
     95 H193       83.7995   57.9417   47.6414 dc         1 CLA      0.065600
     96 H192       82.5695   57.0012   46.8169 dc         1 CLA      0.065600
     97 H191       84.2522   56.3748   46.6339 dc         1 CLA      0.065600
     98 H172       85.8830   58.6947   45.9094 dc         1 CLA      0.027600
     99 H171       85.5007   58.8203   44.3125 dc         1 CLA      0.027600
    100 H162       85.6751   56.2366   44.1672 dc         1 CLA      0.002900
    101 H161       86.2300   56.2842   45.7445 dc         1 CLA      0.002900
    102 H152       88.3247   56.1515   44.5514 dc         1 CLA      0.029100
    103 H151       88.3061   57.6261   45.4420 dc         1 CLA      0.029100
    104 H143       90.0993   58.2571   44.0409 dc         1 CLA      0.063600
    105 H142       90.0041   56.8492   42.9098 dc         1 CLA      0.063600
    106 H141       89.8626   58.6356   42.3679 dc         1 CLA      0.063600
    107 H122       86.4335   56.6961   42.1835 dc         1 CLA      0.032500
    108 H121       87.9913   56.1203   41.9433 dc         1 CLA      0.032500
    109 H112       88.4845   58.3195   40.4715 dc         1 CLA      0.006600
    110 H111       86.7722   58.3263   40.3211 dc         1 CLA      0.006600
    111 H102       86.8040   55.8227   39.8777 dc         1 CLA      0.024100
    112 H101       88.5701   56.0149   39.6237 dc         1 CLA      0.024100
    113 HHD        73.4614   57.0512   39.5034 da         1 CLA      0.174300
    114 HHC        77.3681   61.1903   42.6146 da         1 CLA      0.136800
    115 HHB        81.7244   60.8048   37.8681 da         1 CLA      0.138300
    116 HBD        77.1054   57.4099   33.4761 dc         1 CLA      0.107700
    117 HAB        78.9391   62.8339   42.9910 da         1 CLA      0.155200
    118 H93        88.9766   57.3644   36.9895 dc         1 CLA      0.069500
    119 H92        87.7048   58.4210   36.7822 dc         1 CLA      0.069500
    120 H91        88.6381   58.6504   38.2372 dc         1 CLA      0.069500
    121 H8         86.2757   57.6789   38.2439 dc         1 CLA      0.029300
    122 H72        85.8677   55.3177   37.3824 dc         1 CLA      0.044400
    123 H71        87.6057   55.0094   37.3035 dc         1 CLA      0.044400
    124 H62        87.7865   56.3778   35.3633 dc         1 CLA      0.015600
    125 H61        86.1563   57.0208   35.4745 dc         1 CLA      0.015600
    126 H52        87.1585   54.1122   34.9131 dc         1 CLA      0.033200
    127 H51        86.5831   55.0853   33.6826 dc         1 CLA      0.033200
    128 H43        84.1580   52.3750   35.3044 dc         1 CLA      0.037000
    129 H42        85.8030   52.2976   34.4280 dc         1 CLA      0.037000
    130 H41        85.6526   52.6810   36.1373 dc         1 CLA      0.037000
    131 H3A        81.1867   60.1531   35.2380 dc         1 CLA      0.041100
    132 H2A        80.5585   57.2336   35.1822 dc         1 CLA      0.083100
    133 H2         83.7913   55.4445   35.6429 da         1 CLA      0.180900
    134 H18        83.3738   57.5658   44.6332 dc         1 CLA     -0.003900
    135 H13        87.6534   58.8091   43.2860 dc         1 CLA      0.019700
    136 H12        82.5659   54.6170   32.9395 dc         1 CLA      0.120400
    137 H11        84.0689   55.4023   32.5911 dc         1 CLA      0.120400
    138 C1         69.3569   61.8686   49.2437 Z1         2 LUT      0.509236
    139 C2         67.9542   61.6210   49.8526 Z2         2 LUT     -0.434695
    140 C3         67.0065   62.8220   49.9695 Z3         2 LUT      0.437453
    141 O3         66.9973   63.3210   51.3318 S1         2 LUT     -0.547129
    142 C4         67.3554   63.9656   49.0666 Z4         2 LUT     -0.468603
    143 C5         68.2888   63.6401   47.8775 Z5         2 LUT      0.279246
    144 C6         69.1948   62.6601   47.9395 Z6         2 LUT     -0.305473
    145 C7         69.7105   62.0703   46.6764 Z7         2 LUT      0.069402
    146 C8         70.6972   62.6558   45.9441 Z8         2 LUT     -0.191631
    147 C9         71.3877   62.2837   44.7287 Z9         2 LUT      0.196698
    148 C10        72.5120   62.9888   44.4094 Y1         2 LUT     -0.208611
    149 C11        73.3893   62.8460   43.2179 Y2         2 LUT      0.030784
    150 C12        74.4875   63.6168   42.9645 Y3         2 LUT     -0.220316
    151 C13        75.3027   63.6450   41.7273 Y4         2 LUT      0.215937
    152 C14        76.4531   64.4563   41.8852 Y5         2 LUT     -0.185793
    153 C15        77.5793   64.5989   41.0073 Y6         2 LUT     -0.057835
    154 C16        69.9057   60.4316   49.1125 Y7         2 LUT     -0.405615
    155 C17        70.1029   62.5462   50.3226 Y7         2 LUT     -0.405615
    156 C18        68.0115   64.4876   46.6423 Y9         2 LUT     -0.369639
    157 C19        70.9692   60.9775   44.0997 W1         2 LUT     -0.333362
    158 C20        74.8677   62.9716   40.4227 W2         2 LUT     -0.323439
    159 C21        89.0418   65.7368   35.2516 Z1         2 LUT      0.406104
    160 C22        89.5802   65.0541   33.9981 Z2         2 LUT     -0.404965
    161 C23        89.5764   65.7370   32.7076 Z3         2 LUT      0.391255
    162 O23        89.8338   64.8070   31.6471 S1         2 LUT     -0.528210
    163 C24        88.1955   66.4655   32.5882 W6         2 LUT     -0.258361
    164 C25        87.3069   66.7322   33.5144 Z5         2 LUT      0.133546
    165 C26        87.5793   66.1451   34.9555 W8         2 LUT     -0.147008
    166 C27        86.8838   66.9375   36.1080 Z7         2 LUT      0.023843
    167 C28        85.5288   66.8020   36.4752 Z8         2 LUT     -0.216987
    168 C29        84.8607   67.2467   37.5988 Z9         2 LUT      0.206524
    169 C30        83.7344   66.5449   37.9995 Y1         2 LUT     -0.215556
    170 C31        83.0880   66.7425   39.2270 Y2         2 LUT      0.025142
    171 C32        81.9081   66.1750   39.3837 Y3         2 LUT     -0.212209
    172 C33        81.0263   66.0472   40.5657 Y4         2 LUT      0.240937
    173 C34        79.8270   65.3662   40.3928 Y5         2 LUT     -0.218862
    174 C35        78.6886   65.3804   41.3137 Y6         2 LUT     -0.023547
    175 C36        90.1058   66.8868   35.5149 Y7         2 LUT     -0.393485
    176 C37        89.1446   64.7206   36.4162 Y7         2 LUT     -0.393485
    177 C38        85.9421   67.2567   33.1485 Y9         2 LUT     -0.387526
    178 C39        85.4412   68.2104   38.5899 W1         2 LUT     -0.322618
    179 C40        81.3465   66.7178   41.8116 W2         2 LUT     -0.358472
    180 H403       82.4376   66.6870   41.9363 R7         2 LUT      0.097720
    181 H402       80.8568   67.6693   41.8491 R7         2 LUT      0.097720
    182 H401       81.1423   66.0648   42.6710 R7         2 LUT      0.097720
    183 H393       84.7928   68.8515   39.2472 R4         2 LUT      0.082505
    184 H392       86.0871   67.7188   39.2593 R4         2 LUT      0.082505
    185 H391       85.9440   69.0136   38.0287 R4         2 LUT      0.082505
    186 H383       85.8532   67.1740   32.0873 R1         2 LUT      0.104030
    187 H382       85.1432   66.6423   33.5558 R1         2 LUT      0.104030
    188 H381       85.7996   68.2205   33.5530 R1         2 LUT      0.104030
    189 H373       90.1171   64.4241   36.6461 T4         2 LUT      0.089537
    190 H372       88.8261   65.1165   37.4676 T4         2 LUT      0.089537
    191 H371       88.5617   63.8448   36.3496 T4         2 LUT      0.089537
    192 H363       89.9805   67.6728   34.8189 T4         2 LUT      0.089537
    193 H362       89.9408   67.3151   36.4866 T4         2 LUT      0.089537
    194 H361       91.1591   66.4838   35.5616 T4         2 LUT      0.089537
    195 H222       90.5861   64.8150   34.2051 U2         2 LUT      0.127376
    196 H221       89.0957   64.0893   33.8102 U2         2 LUT      0.127376
    197 H203       75.4760   63.0545   39.5344 R7         2 LUT      0.087068
    198 H202       74.7295   61.8853   40.6256 R7         2 LUT      0.087068
    199 H201       73.8715   63.3999   40.1173 R7         2 LUT      0.087068
    200 H193       71.7657   60.2512   44.2072 R4         2 LUT      0.089716
    201 H192       69.9945   60.6211   44.3485 R4         2 LUT      0.089716
    202 H191       70.8230   61.0152   43.0316 R4         2 LUT      0.089716
    203 H183       69.0128   64.8151   46.2451 R1         2 LUT      0.094572
    204 H182       67.5112   63.8898   45.8564 R1         2 LUT      0.094572
    205 H181       67.3394   65.3678   46.8821 R1         2 LUT      0.094572
    206 H173       69.6467   63.4913   50.8085 T4         2 LUT      0.093752
    207 H172       70.4492   61.8034   51.0055 T4         2 LUT      0.093752
    208 H171       70.9836   62.9767   49.8298 T4         2 LUT      0.093752
    209 H163       70.8673   60.4764   48.6947 T4         2 LUT      0.093752
    210 H162       70.0527   59.9632   50.1196 T4         2 LUT      0.093752
    211 H161       69.2685   59.8125   48.5196 T4         2 LUT      0.093752
    212 HO3        66.3228   62.8655   51.8578 Q1         2 LUT      0.300121
    213 H8         70.9050   63.6733   46.2279 U7         2 LUT      0.080784
    214 H7         69.4435   61.0517   46.4762 U6         2 LUT      0.042190
    215 H42        66.4264   64.2626   48.6560 U5         2 LUT      0.145166
    216 H41        67.7692   64.7906   49.6255 U5         2 LUT      0.145166
    217 H35        78.7009   65.9812   42.1872 T3         2 LUT      0.077919
    218 H34        79.5499   64.8665   39.4168 T2         2 LUT      0.073626
    219 H32        81.5254   65.7796   38.4864 T1         2 LUT      0.092510
    220 H31        83.5675   67.3409   40.0696 U9         2 LUT      0.070048
    221 H30        83.3367   65.9070   37.2119 U8         2 LUT      0.085442
    222 H3         65.9817   62.5069   49.6565 U3         2 LUT     -0.031596
    223 H28        84.8883   66.2453   35.8179 U7         2 LUT      0.084728
    224 H27        87.5456   67.4112   36.8694 U6         2 LUT      0.087291
    225 H26        87.1421   65.1666   35.0667 Q6         2 LUT      0.075325
    226 H24        87.8957   66.7229   31.5440 Q5         2 LUT      0.094482
    227 H23        90.4013   66.4206   32.8658 U3         2 LUT     -0.024869
    228 H22        67.4280   60.8736   49.2840 U2         2 LUT      0.127376
    229 H21        67.9718   60.9773   50.7656 U2         2 LUT      0.127376
    230 H15        77.5737   64.0228   40.0515 T3         2 LUT      0.093200
    231 H14        76.5871   65.0226   42.8408 T2         2 LUT      0.068865
    232 H12        74.8383   64.3375   43.6909 T1         2 LUT      0.095507
    233 H11        73.0809   62.1067   42.5111 U9         2 LUT      0.068930
    234 H10        72.7630   63.9014   44.9449 U8         2 LUT      0.083911
    235 H1         89.7767   65.1571   30.7506 Q1         2 LUT      0.297311
@<TRIPOS>BOND
    1     6     1 1
    2     7     2 1
    3     8     3 1
    4     9     4 1
    5    11     4 1
    6    12     6 1
    7    13     9 1
    8    16     9 1
    9    25     5 1
   10    25    16 1
   11    26    10 1
   12    26    17 1
   13    27    18 1
   14    28    14 1
   15    28    19 1
   16    29    12 1
   17    30    13 1
   18    31    24 1
   19    32     1 1
   20    32    25 1
   21    33    21 1
   22    33    26 1
   23    34    22 1
   24    34    27 1
   25    35    23 1
   26    35    28 1
   27    36    12 1
   28    36    24 1
   29    37    13 1
   30    37    15 1
   31    38    31 1
   32    39    20 1
   33    39    32 1
   34    40     2 1
   35    40    33 1
   36    41     3 1
   37    41    34 1
   38    42     4 1
   39    42    35 1
   40    43    38 1
   41    44     5 1
   42    44    17 1
   43    44    39 1
   44    45    10 1
   45    45    18 1
   46    45    40 1
   47    46    19 1
   48    46    41 1
   49    47    14 1
   50    47    16 1
   51    47    42 1
   52    48    38 1
   53    49    48 1
   54    50    49 1
   55    51    50 1
   56    52    51 1
   57    53    51 1
   58    54    53 1
   59    55    54 1
   60    56    55 1
   61    57    56 1
   62    58    56 1
   63    59    58 1
   64    60    59 1
   65    61    60 1
   66    62    61 1
   67    63    61 1
   68    64    27 1
   69    64    46 1
   70    65     5 1
   71    65    10 1
   72    65    64 1
   73    65    14 1
   74    66    23 1
   75    67    23 1
   76    68    23 1
   77    69    22 1
   78    70    22 1
   79    71    22 1
   80    72    21 1
   81    73    21 1
   82    74    21 1
   83    75    20 1
   84    76    20 1
   85    77    20 1
   86    78    15 1
   87    79    15 1
   88    80    15 1
   89    81     8 1
   90    82     8 1
   91    83     8 1
   92    84     7 1
   93    85     7 1
   94    86     6 1
   95    87     6 1
   96    88     3 1
   97    89     3 1
   98    90     1 1
   99    91     1 1
  100    92    63 1
  101    93    63 1
  102    94    63 1
  103    95    62 1
  104    96    62 1
  105    97    62 1
  106    98    60 1
  107    99    60 1
  108   100    59 1
  109   101    59 1
  110   102    58 1
  111   103    58 1
  112   104    57 1
  113   105    57 1
  114   106    57 1
  115   107    55 1
  116   108    55 1
  117   109    54 1
  118   110    54 1
  119   111    53 1
  120   112    53 1
  121   113    19 1
  122   114    18 1
  123   115    17 1
  124   116     9 1
  125   117     2 1
  126   118    52 1
  127   119    52 1
  128   120    52 1
  129   121    51 1
  130   122    50 1
  131   123    50 1
  132   124    49 1
  133   125    49 1
  134   126    48 1
  135   127    48 1
  136   128    43 1
  137   129    43 1
  138   130    43 1
  139   131    39 1
  140   132    32 1
  141   133    31 1
  142   134    61 1
  143   135    56 1
  144   136    24 1
  145   137    24 1
  146   139   138 1
  147   140   139 1
  148   141   140 1
  149   142   140 1
  150   143   142 1
  151   144   138 1
  152   144   143 1
  153   145   144 1
  154   146   145 1
  155   147   146 1
  156   148   147 1
  157   149   148 1
  158   150   149 1
  159   151   150 1
  160   152   151 1
  161   153   152 1
  162   154   138 1
  163   155   138 1
  164   156   143 1
  165   157   147 1
  166   158   151 1
  167   160   159 1
  168   161   160 1
  169   162   161 1
  170   163   161 1
  171   164   163 1
  172   165   159 1
  173   165   164 1
  174   166   165 1
  175   167   166 1
  176   168   167 1
  177   169   168 1
  178   170   169 1
  179   171   170 1
  180   172   171 1
  181   173   172 1
  182   174   153 1
  183   174   173 1
  184   175   159 1
  185   176   159 1
  186   177   164 1
  187   178   168 1
  188   179   172 1
  189   180   179 1
  190   181   179 1
  191   182   179 1
  192   183   178 1
  193   184   178 1
  194   185   178 1
  195   186   177 1
  196   187   177 1
  197   188   177 1
  198   189   176 1
  199   190   176 1
  200   191   176 1
  201   192   175 1
  202   193   175 1
  203   194   175 1
  204   195   160 1
  205   196   160 1
  206   197   158 1
  207   198   158 1
  208   199   158 1
  209   200   157 1
  210   201   157 1
  211   202   157 1
  212   203   156 1
  213   204   156 1
  214   205   156 1
  215   206   155 1
  216   207   155 1
  217   208   155 1
  218   209   154 1
  219   210   154 1
  220   211   154 1
  221   212   141 1
  222   213   146 1
  223   214   145 1
  224   215   142 1
  225   216   142 1
  226   217   174 1
  227   218   173 1
  228   219   171 1
  229   220   170 1
  230   221   169 1
  231   222   140 1
  232   223   167 1
  233   224   166 1
  234   225   165 1
  235   226   163 1
  236   227   161 1
  237   228   139 1
  238   229   139 1
  239   230   153 1
  240   231   152 1
  241   232   150 1
  242   233   149 1
  243   234   148 1
  244   235   162 1
  245   65    153 1
  246   65    174 1
@<TRIPOS>SUBSTRUCTURE
      1 CLA               1 ****               0 ****  **** 
      2 LUT             138 ****               0 ****  **** 
