@<TRIPOS>MOLECULE
Cpptraj generated mol2 file.
  235   246     2     0     0
SMALL
USER_CHARGES


@<TRIPOS>ATOM
      1 CAA        79.6054   58.6347   33.7137 a2         1 CLA     -0.055900
      2 CAB        79.1851   61.9718   42.9024 c8         1 CLA     -0.148500
      3 CAC        72.6853   57.5185   42.1033 a2         1 CLA     -0.012600
      4 CAD        75.4907   55.8125   34.6030 ck         1 CLA      0.398800
      5 NA         78.5248   58.7613   37.1361 ns         1 CLA     -0.225500
      6 CBA        80.7596   58.4470   32.7427 a2         1 CLA     -0.135000
      7 CBB        80.0499   62.8586   43.4061 c0         1 CLA     -0.395200
      8 CBC        72.9240   55.9150   42.1855 a3         1 CLA     -0.037700
      9 CBD        76.9516   56.4560   34.3686 a1         1 CLA     -0.053900
     10 NB         78.3102   60.2132   39.7232 nm         1 CLA     -0.295700
     11 OBD        74.8888   55.0275   33.8869 o2         1 CLA     -0.494600
     12 CGA        81.1305   57.0033   32.5559 c4         1 CLA      0.827000
     13 CGD        78.0258   55.4552   34.1798 c4         1 CLA      0.655300
     14 ND         75.7352   57.8187   37.4773 nm         1 CLA     -0.291600
     15 CED        79.4361   53.7755   35.3298 a3         1 CLA      0.005400
     16 CHA        77.2496   57.3359   35.5359 cs         1 CLA     -0.123800
     17 CHB        80.2736   60.1317   38.2581 aa         1 CLA     -0.291900
     18 CHC        76.7825   60.3104   41.6201 aa         1 CLA     -0.090400
     19 CHD        73.9520   57.4417   39.0282 aa         1 CLA     -0.052000
     20 CMA        81.9479   58.1155   36.5476 a3         1 CLA     -0.230700
     21 CMB        81.4811   61.9352   40.5305 a3         1 CLA     -0.180800
     22 CMC        74.2633   59.8950   43.4384 a3         1 CLA     -0.134000
     23 CMD        73.0599   55.2333   36.7894 a3         1 CLA     -0.141100
     24 C1         82.3126   55.2285   33.5848 a2         1 CLA      0.023000
     25 C1A        78.4282   58.0595   35.8946 ac         1 CLA     -0.015100
     26 C1B        79.5919   60.5152   39.4197 cr         1 CLA      0.054700
     27 C1C        75.6153   59.6597   41.2946 cn         1 CLA     -0.005600
     28 C1D        74.5512   57.1932   37.8139 ap         1 CLA     -0.047300
     29 O1A        80.7922   56.3153   31.6433 o2         1 CLA     -0.610800
     30 O1D        78.6540   55.2856   33.1656 o2         1 CLA     -0.558200
     31 C2         83.1573   54.8832   34.7759 c8         1 CLA     -0.325100
     32 C2A        79.7624   58.1106   35.1594 a1         1 CLA      0.098600
     33 C2B        80.1374   61.2903   40.5430 cb         1 CLA      0.088500
     34 C2C        74.5000   59.3321   42.0887 cb         1 CLA      0.053700
     35 C2D        74.1031   56.2288   36.7747 cb         1 CLA      0.058900
     36 O2A        82.0642   56.6592   33.5392 o1         1 CLA     -0.437200
     37 O2D        78.2837   54.7608   35.2991 o1         1 CLA     -0.357600
     38 C3         84.2586   54.0679   34.8965 c5         1 CLA      0.031200
     39 C3A        80.7266   58.9327   36.1299 a1         1 CLA      0.166800
     40 C3B        79.1399   61.3546   41.5281 cb         1 CLA      0.035000
     41 C3C        73.8334   58.3255   41.4274 cb         1 CLA     -0.089900
     42 C3D        75.1029   56.3378   35.8352 cb         1 CLA     -0.035900
     43 C4         84.0883   52.5448   35.3325 a3         1 CLA     -0.053300
     44 C4A        79.7775   59.2913   37.2885 ac         1 CLA      0.001800
     45 C4B        78.0179   60.6352   41.0031 cn         1 CLA     -0.020900
     46 C4C        74.4350   58.2180   40.1200 cr         1 CLA     -0.044400
     47 C4D        76.0620   57.3054   36.3047 c6         1 CLA     -0.046000
     48 C5         85.6171   54.6060   34.5127 a2         1 CLA     -0.070400
     49 C6         86.0624   55.7900   35.4459 a2         1 CLA      0.043900
     50 C7         86.6498   55.4312   36.7895 a2         1 CLA     -0.150000
     51 C8         86.8953   56.6139   37.8116 a1         1 CLA      0.064200
     52 C9         87.7872   57.7124   37.2399 a3         1 CLA     -0.259300
     53 C10        87.4976   56.1264   39.1739 a2         1 CLA     -0.071900
     54 C11        87.6285   57.1764   40.2465 a2         1 CLA      0.014500
     55 C12        88.0447   56.6528   41.6122 a2         1 CLA     -0.112100
     56 C13        88.1571   57.7098   42.7931 a1         1 CLA      0.089200
     57 C14        89.3051   58.7908   42.5323 a3         1 CLA     -0.239100
     58 C15        88.4291   57.0260   44.2043 a2         1 CLA     -0.102200
     59 C16        87.2466   56.3857   44.8692 a2         1 CLA      0.023900
     60 C17        86.5611   57.3402   45.8817 a2         1 CLA     -0.105700
     61 C18        85.2205   56.8828   46.5564 a1         1 CLA      0.206800
     62 C19        85.4173   55.4124   47.1896 a3         1 CLA     -0.280100
     63 C20        84.6697   57.8915   47.6041 a3         1 CLA     -0.280100
     64 NC         75.5172   59.0510   40.0678 nx         1 CLA     -0.309200
     65 MG         76.9991   59.0460   38.5389 mg         1 CLA      0.895000
     66 HMD3       73.0809   54.6940   35.8363 dc         1 CLA      0.064300
     67 HMD2       73.1000   54.5151   37.6060 dc         1 CLA      0.064300
     68 HMD1       72.1318   55.8265   36.8354 dc         1 CLA      0.064300
     69 HMC3       73.3253   60.5006   43.3373 dc         1 CLA      0.052100
     70 HMC2       73.9977   59.1224   44.1626 dc         1 CLA      0.052100
     71 HMC1       74.9984   60.4758   43.9245 dc         1 CLA      0.052100
     72 HMB3       81.5671   62.9435   40.2361 dc         1 CLA      0.063600
     73 HMB2       81.9124   61.7353   41.5721 dc         1 CLA      0.063600
     74 HMB1       82.1424   61.2678   39.9866 dc         1 CLA      0.063600
     75 HMA3       81.6644   57.2365   37.0466 dc         1 CLA      0.058300
     76 HMA2       82.6793   57.9229   35.7994 dc         1 CLA      0.058300
     77 HMA1       82.5629   58.8157   37.0883 dc         1 CLA      0.058300
     78 HED3       80.4016   54.2744   35.4338 dc         1 CLA      0.079300
     79 HED2       79.2192   53.1643   36.1939 dc         1 CLA      0.079300
     80 HED1       79.4439   53.0918   34.5686 dc         1 CLA      0.079300
     81 HBC3       73.8541   55.6861   42.8397 dc         1 CLA      0.016300
     82 HBC2       71.9742   55.4750   42.5128 dc         1 CLA      0.016300
     83 HBC1       73.2402   55.3966   41.3188 dc         1 CLA      0.016300
     84 HBB2       80.1381   63.1507   44.4756 da         1 CLA      0.183000
     85 HBB1       80.7414   63.4412   42.7384 da         1 CLA      0.183000
     86 HBA2       80.4283   58.7764   31.7611 dc         1 CLA      0.029400
     87 HBA1       81.6514   58.8641   33.2315 dc         1 CLA      0.029400
     88 HAC2       72.3861   57.8969   43.0578 dc         1 CLA      0.029300
     89 HAC1       71.8419   57.5231   41.4935 dc         1 CLA      0.029300
     90 HAA2       78.7809   58.0912   33.2491 dc         1 CLA      0.028700
     91 HAA1       79.4021   59.7380   33.8057 dc         1 CLA      0.028700
     92 H203       85.5985   58.0839   48.2477 dc         1 CLA      0.065600
     93 H202       84.3578   58.9012   47.2545 dc         1 CLA      0.065600
     94 H201       83.8484   57.3547   48.1758 dc         1 CLA      0.065600
     95 H193       84.5255   54.9993   47.6271 dc         1 CLA      0.065600
     96 H192       85.8600   54.6698   46.5138 dc         1 CLA      0.065600
     97 H191       86.0898   55.5943   48.0126 dc         1 CLA      0.065600
     98 H172       87.2539   57.6212   46.6823 dc         1 CLA      0.027600
     99 H171       86.2006   58.2549   45.3622 dc         1 CLA      0.027600
    100 H162       86.4473   55.9657   44.2439 dc         1 CLA      0.002900
    101 H161       87.7316   55.6425   45.5439 dc         1 CLA      0.002900
    102 H152       89.0400   56.1624   43.8134 dc         1 CLA      0.029100
    103 H151       88.9787   57.6703   44.8453 dc         1 CLA      0.029100
    104 H143       89.1620   59.1888   41.5110 dc         1 CLA      0.063600
    105 H142       89.3564   59.6345   43.2457 dc         1 CLA      0.063600
    106 H141       90.3116   58.2275   42.6290 dc         1 CLA      0.063600
    107 H122       87.2658   55.9391   41.7635 dc         1 CLA      0.032500
    108 H121       89.0065   56.1567   41.6049 dc         1 CLA      0.032500
    109 H112       88.4897   57.7748   39.8856 dc         1 CLA      0.006600
    110 H111       86.7531   57.7992   40.3583 dc         1 CLA      0.006600
    111 H102       86.7366   55.3499   39.4243 dc         1 CLA      0.024100
    112 H101       88.4272   55.5654   39.0170 dc         1 CLA      0.024100
    113 HHD        73.0487   56.9201   39.1858 da         1 CLA      0.174300
    114 HHC        76.7822   60.6028   42.6615 da         1 CLA      0.136800
    115 HHB        81.2779   60.4556   38.1926 da         1 CLA      0.138300
    116 HBD        77.0076   57.0943   33.5027 dc         1 CLA      0.107700
    117 HAB        78.4065   61.5879   43.5611 da         1 CLA      0.155200
    118 H93        88.7165   57.2896   37.0548 dc         1 CLA      0.069500
    119 H92        87.2213   58.1175   36.4036 dc         1 CLA      0.069500
    120 H91        87.8290   58.6042   37.8948 dc         1 CLA      0.069500
    121 H8         85.9335   57.0239   38.0764 dc         1 CLA      0.029300
    122 H72        85.8981   54.8140   37.2395 dc         1 CLA      0.044400
    123 H71        87.5500   54.8289   36.6668 dc         1 CLA      0.044400
    124 H62        86.8827   56.2566   34.9300 dc         1 CLA      0.015600
    125 H61        85.2197   56.4600   35.6139 dc         1 CLA      0.015600
    126 H52        86.4019   53.8102   34.4889 dc         1 CLA      0.033200
    127 H51        85.5311   55.0213   33.4062 dc         1 CLA      0.033200
    128 H43        84.7403   52.5658   36.1199 dc         1 CLA      0.037000
    129 H42        83.0360   52.4197   35.6527 dc         1 CLA      0.037000
    130 H41        84.5053   51.9736   34.5462 dc         1 CLA      0.037000
    131 H3A        81.0205   59.8032   35.4787 dc         1 CLA      0.041100
    132 H2A        80.1325   57.0972   35.0090 dc         1 CLA      0.083100
    133 H2         82.9767   55.3901   35.7072 da         1 CLA      0.180900
    134 H18        84.4574   56.7532   45.7710 dc         1 CLA     -0.003900
    135 H13        87.1456   58.1535   42.7236 dc         1 CLA      0.019700
    136 H12        81.4039   54.6599   33.6922 dc         1 CLA      0.120400
    137 H11        82.7950   54.8761   32.6854 dc         1 CLA      0.120400
    138 C1         69.1878   61.9943   50.2001 Z1         2 LUT      0.509236
    139 C2         67.6741   61.8348   50.5226 Z2         2 LUT     -0.434695
    140 C3         66.8962   63.1071   50.8409 Z3         2 LUT      0.437453
    141 O3         66.8452   63.2648   52.2673 S1         2 LUT     -0.547129
    142 C4         67.5194   64.3326   50.0583 Z4         2 LUT     -0.468603
    143 C5         68.4185   63.9608   48.8484 Z5         2 LUT      0.279246
    144 C6         69.3317   62.9521   49.0177 Z6         2 LUT     -0.305473
    145 C7         70.0625   62.3492   47.8404 Z7         2 LUT      0.069402
    146 C8         70.7630   63.0718   46.9460 Z8         2 LUT     -0.191631
    147 C9         71.3433   62.7067   45.6734 Z9         2 LUT      0.196698
    148 C10        72.3044   63.5365   45.1834 Y1         2 LUT     -0.208611
    149 C11        73.0332   63.4632   43.9842 Y2         2 LUT      0.030784
    150 C12        74.2429   64.1164   43.6713 Y3         2 LUT     -0.220316
    151 C13        74.9882   64.1387   42.4296 Y4         2 LUT      0.215937
    152 C14        76.3581   64.5926   42.4675 Y5         2 LUT     -0.185793
    153 C15        77.3266   64.6178   41.4121 Y6         2 LUT     -0.057835
    154 C16        69.7887   60.5849   50.0545 Y7         2 LUT     -0.405615
    155 C17        70.0062   62.6354   51.3954 Y7         2 LUT     -0.405615
    156 C18        67.9660   64.6566   47.5606 Y9         2 LUT     -0.369639
    157 C19        71.0141   61.3532   45.1250 W1         2 LUT     -0.333362
    158 C20        74.3940   63.4175   41.2414 W2         2 LUT     -0.323439
    159 C21        88.2524   65.5154   35.3205 Z1         2 LUT      0.406104
    160 C22        88.9114   64.8199   34.0761 Z2         2 LUT     -0.404965
    161 C23        89.3317   65.6863   32.9253 Z3         2 LUT      0.391255
    162 O23        89.8020   64.8372   31.8928 S1         2 LUT     -0.528210
    163 C24        88.1449   66.5799   32.6166 W6         2 LUT     -0.258361
    164 C25        87.1840   66.9774   33.4367 Z5         2 LUT      0.133546
    165 C26        86.9565   66.2587   34.8062 W8         2 LUT     -0.147008
    166 C27        86.3085   67.1412   35.8924 Z7         2 LUT      0.023843
    167 C28        85.1219   66.7801   36.3983 Z8         2 LUT     -0.216987
    168 C29        84.5445   67.2114   37.6667 Z9         2 LUT      0.206524
    169 C30        83.4774   66.5049   38.0795 Y1         2 LUT     -0.215556
    170 C31        82.6739   66.6481   39.1525 Y2         2 LUT      0.025142
    171 C32        81.6426   65.9130   39.4702 Y3         2 LUT     -0.212209
    172 C33        80.7252   66.0159   40.5366 Y4         2 LUT      0.240937
    173 C34        79.5459   65.2446   40.4870 Y5         2 LUT     -0.218862
    174 C35        78.4918   65.2641   41.5169 Y6         2 LUT     -0.023547
    175 C36        89.3302   66.3981   35.9789 Y7         2 LUT     -0.393485
    176 C37        87.9599   64.3134   36.3336 Y7         2 LUT     -0.393485
    177 C38        86.2271   68.0569   32.9564 Y9         2 LUT     -0.387526
    178 C39        85.2536   68.1493   38.6354 W1         2 LUT     -0.322618
    179 C40        81.0921   67.1283   41.5537 W2         2 LUT     -0.358472
    180 H403       82.1297   67.2099   41.8196 R7         2 LUT      0.097720
    181 H402       80.7228   68.0987   41.3115 R7         2 LUT      0.097720
    182 H401       80.5794   66.7737   42.4383 R7         2 LUT      0.097720
    183 H393       86.3664   68.0215   38.5588 R4         2 LUT      0.082505
    184 H392       84.9272   69.1758   38.4007 R4         2 LUT      0.082505
    185 H391       85.1596   67.9883   39.7387 R4         2 LUT      0.082505
    186 H383       85.6448   67.5039   32.2519 R1         2 LUT      0.104030
    187 H382       85.5084   68.3987   33.7626 R1         2 LUT      0.104030
    188 H381       86.8141   68.8254   32.4919 R1         2 LUT      0.104030
    189 H373       88.8148   63.8330   36.7346 T4         2 LUT      0.089537
    190 H372       87.3326   64.7094   37.0850 T4         2 LUT      0.089537
    191 H371       87.3519   63.5102   35.8676 T4         2 LUT      0.089537
    192 H363       89.5226   67.2448   35.3221 T4         2 LUT      0.089537
    193 H362       89.1732   66.7857   36.9688 T4         2 LUT      0.089537
    194 H361       90.2302   65.7366   36.0841 T4         2 LUT      0.089537
    195 H222       89.8004   64.2968   34.3734 U2         2 LUT      0.127376
    196 H221       88.2247   64.0594   33.7953 U2         2 LUT      0.127376
    197 H203       73.4063   63.7863   41.0274 R7         2 LUT      0.087068
    198 H202       74.8527   63.5374   40.2653 R7         2 LUT      0.087068
    199 H201       74.2355   62.3363   41.3728 R7         2 LUT      0.087068
    200 H193       71.7272   60.5242   45.3068 R4         2 LUT      0.089716
    201 H192       70.0559   60.9874   45.3787 R4         2 LUT      0.089716
    202 H191       70.9687   61.4413   44.0449 R4         2 LUT      0.089716
    203 H183       67.5891   65.6778   47.7956 R1         2 LUT      0.094572
    204 H182       68.8800   64.8824   46.8829 R1         2 LUT      0.094572
    205 H181       67.1782   64.1172   47.0060 R1         2 LUT      0.094572
    206 H173       69.9262   62.0324   52.3039 T4         2 LUT      0.093752
    207 H172       71.0745   62.5836   51.1940 T4         2 LUT      0.093752
    208 H171       69.6996   63.6499   51.6502 T4         2 LUT      0.093752
    209 H163       70.8355   60.5277   49.6314 T4         2 LUT      0.093752
    210 H162       69.8659   60.0308   50.9624 T4         2 LUT      0.093752
    211 H161       69.2258   59.9575   49.3510 T4         2 LUT      0.093752
    212 HO3        66.1112   62.7829   52.6299 Q1         2 LUT      0.300121
    213 H8         71.0082   64.0659   47.3186 U7         2 LUT      0.080784
    214 H7         69.8606   61.3046   47.6803 U6         2 LUT      0.042190
    215 H42        66.7661   65.0770   49.7754 U5         2 LUT      0.145166
    216 H41        68.0904   64.9290   50.7355 U5         2 LUT      0.145166
    217 H35        78.6497   65.8944   42.4237 T3         2 LUT      0.077919
    218 H34        79.5459   64.4163   39.7368 T2         2 LUT      0.073626
    219 H32        81.2730   65.1225   38.7604 T1         2 LUT      0.092510
    220 H31        82.8231   67.4862   39.8184 U9         2 LUT      0.070048
    221 H30        83.1130   65.7918   37.3868 U8         2 LUT      0.085442
    222 H3         65.9125   63.1234   50.3227 U3         2 LUT     -0.031596
    223 H28        84.5873   66.0401   35.8871 U7         2 LUT      0.084728
    224 H27        87.0177   67.7673   36.4343 U6         2 LUT      0.087291
    225 H26        86.2114   65.4094   34.5400 Q6         2 LUT      0.075325
    226 H24        88.2786   67.0409   31.6172 Q5         2 LUT      0.094482
    227 H23        90.1516   66.2270   33.3935 U3         2 LUT     -0.024869
    228 H22        67.1697   61.5828   49.5916 U2         2 LUT      0.127376
    229 H21        67.5328   61.1512   51.3815 U2         2 LUT      0.127376
    230 H15        77.1983   63.9458   40.5316 T3         2 LUT      0.093200
    231 H14        76.7402   64.8874   43.4613 T2         2 LUT      0.068865
    232 H12        74.7057   64.6800   44.4938 T1         2 LUT      0.095507
    233 H11        72.6003   62.8872   43.1861 U9         2 LUT      0.068930
    234 H10        72.5643   64.4124   45.7500 U8         2 LUT      0.083911
    235 H1         89.1092   64.6294   31.2450 Q1         2 LUT      0.297311
@<TRIPOS>BOND
    1     6     1 1
    2     7     2 1
    3     8     3 1
    4     9     4 1
    5    11     4 1
    6    12     6 1
    7    13     9 1
    8    16     9 1
    9    25     5 1
   10    25    16 1
   11    26    10 1
   12    26    17 1
   13    27    18 1
   14    28    14 1
   15    28    19 1
   16    29    12 1
   17    30    13 1
   18    31    24 1
   19    32     1 1
   20    32    25 1
   21    33    21 1
   22    33    26 1
   23    34    22 1
   24    34    27 1
   25    35    23 1
   26    35    28 1
   27    36    12 1
   28    36    24 1
   29    37    13 1
   30    37    15 1
   31    38    31 1
   32    39    20 1
   33    39    32 1
   34    40     2 1
   35    40    33 1
   36    41     3 1
   37    41    34 1
   38    42     4 1
   39    42    35 1
   40    43    38 1
   41    44     5 1
   42    44    17 1
   43    44    39 1
   44    45    10 1
   45    45    18 1
   46    45    40 1
   47    46    19 1
   48    46    41 1
   49    47    14 1
   50    47    16 1
   51    47    42 1
   52    48    38 1
   53    49    48 1
   54    50    49 1
   55    51    50 1
   56    52    51 1
   57    53    51 1
   58    54    53 1
   59    55    54 1
   60    56    55 1
   61    57    56 1
   62    58    56 1
   63    59    58 1
   64    60    59 1
   65    61    60 1
   66    62    61 1
   67    63    61 1
   68    64    27 1
   69    64    46 1
   70    65     5 1
   71    65    10 1
   72    65    64 1
   73    65    14 1
   74    66    23 1
   75    67    23 1
   76    68    23 1
   77    69    22 1
   78    70    22 1
   79    71    22 1
   80    72    21 1
   81    73    21 1
   82    74    21 1
   83    75    20 1
   84    76    20 1
   85    77    20 1
   86    78    15 1
   87    79    15 1
   88    80    15 1
   89    81     8 1
   90    82     8 1
   91    83     8 1
   92    84     7 1
   93    85     7 1
   94    86     6 1
   95    87     6 1
   96    88     3 1
   97    89     3 1
   98    90     1 1
   99    91     1 1
  100    92    63 1
  101    93    63 1
  102    94    63 1
  103    95    62 1
  104    96    62 1
  105    97    62 1
  106    98    60 1
  107    99    60 1
  108   100    59 1
  109   101    59 1
  110   102    58 1
  111   103    58 1
  112   104    57 1
  113   105    57 1
  114   106    57 1
  115   107    55 1
  116   108    55 1
  117   109    54 1
  118   110    54 1
  119   111    53 1
  120   112    53 1
  121   113    19 1
  122   114    18 1
  123   115    17 1
  124   116     9 1
  125   117     2 1
  126   118    52 1
  127   119    52 1
  128   120    52 1
  129   121    51 1
  130   122    50 1
  131   123    50 1
  132   124    49 1
  133   125    49 1
  134   126    48 1
  135   127    48 1
  136   128    43 1
  137   129    43 1
  138   130    43 1
  139   131    39 1
  140   132    32 1
  141   133    31 1
  142   134    61 1
  143   135    56 1
  144   136    24 1
  145   137    24 1
  146   139   138 1
  147   140   139 1
  148   141   140 1
  149   142   140 1
  150   143   142 1
  151   144   138 1
  152   144   143 1
  153   145   144 1
  154   146   145 1
  155   147   146 1
  156   148   147 1
  157   149   148 1
  158   150   149 1
  159   151   150 1
  160   152   151 1
  161   153   152 1
  162   154   138 1
  163   155   138 1
  164   156   143 1
  165   157   147 1
  166   158   151 1
  167   160   159 1
  168   161   160 1
  169   162   161 1
  170   163   161 1
  171   164   163 1
  172   165   159 1
  173   165   164 1
  174   166   165 1
  175   167   166 1
  176   168   167 1
  177   169   168 1
  178   170   169 1
  179   171   170 1
  180   172   171 1
  181   173   172 1
  182   174   153 1
  183   174   173 1
  184   175   159 1
  185   176   159 1
  186   177   164 1
  187   178   168 1
  188   179   172 1
  189   180   179 1
  190   181   179 1
  191   182   179 1
  192   183   178 1
  193   184   178 1
  194   185   178 1
  195   186   177 1
  196   187   177 1
  197   188   177 1
  198   189   176 1
  199   190   176 1
  200   191   176 1
  201   192   175 1
  202   193   175 1
  203   194   175 1
  204   195   160 1
  205   196   160 1
  206   197   158 1
  207   198   158 1
  208   199   158 1
  209   200   157 1
  210   201   157 1
  211   202   157 1
  212   203   156 1
  213   204   156 1
  214   205   156 1
  215   206   155 1
  216   207   155 1
  217   208   155 1
  218   209   154 1
  219   210   154 1
  220   211   154 1
  221   212   141 1
  222   213   146 1
  223   214   145 1
  224   215   142 1
  225   216   142 1
  226   217   174 1
  227   218   173 1
  228   219   171 1
  229   220   170 1
  230   221   169 1
  231   222   140 1
  232   223   167 1
  233   224   166 1
  234   225   165 1
  235   226   163 1
  236   227   161 1
  237   228   139 1
  238   229   139 1
  239   230   153 1
  240   231   152 1
  241   232   150 1
  242   233   149 1
  243   234   148 1
  244   235   162 1
  245   65    153 1
  246   65    174 1
@<TRIPOS>SUBSTRUCTURE
      1 CLA               1 ****               0 ****  **** 
      2 LUT             138 ****               0 ****  **** 
